REMARK  Name = ../refined-set-2016/3zm9/3zm9_pocket.pdb
REMARK  268 active torsions:
REMARK  status: ('A' for Active; 'I' for Inactive)
REMARK    1  A    between atoms: _1  and  _3
REMARK    2  A    between atoms: _3  and  _4
REMARK    3  A    between atoms: _3  and  _6
REMARK    4  A    between atoms: _6  and  _7
REMARK    5  A    between atoms: _10  and  _12
REMARK    6  A    between atoms: _12  and  _13
REMARK    7  A    between atoms: _12  and  _15
REMARK    8  A    between atoms: _15  and  _16
REMARK    9  A    between atoms: _16  and  _17
REMARK   10  A    between atoms: _17  and  _18
REMARK   11  A    between atoms: _27  and  _29
REMARK   12  A    between atoms: _29  and  _30
REMARK   13  A    between atoms: _29  and  _32
REMARK   14  A    between atoms: _32  and  _33
REMARK   15  A    between atoms: _38  and  _40
REMARK   16  A    between atoms: _40  and  _41
REMARK   17  A    between atoms: _40  and  _43
REMARK   18  A    between atoms: _43  and  _44
REMARK   19  A    between atoms: _47  and  _49
REMARK   20  A    between atoms: _49  and  _50
REMARK   21  A    between atoms: _49  and  _52
REMARK   22  A    between atoms: _52  and  _53
REMARK   23  A    between atoms: _53  and  _54
REMARK   24  A    between atoms: _59  and  _61
REMARK   25  A    between atoms: _61  and  _62
REMARK   26  A    between atoms: _61  and  _64
REMARK   27  A    between atoms: _67  and  _69
REMARK   28  A    between atoms: _69  and  _70
REMARK   29  A    between atoms: _69  and  _72
REMARK   30  A    between atoms: _72  and  _73
REMARK   31  A    between atoms: _76  and  _78
REMARK   32  A    between atoms: _78  and  _79
REMARK   33  A    between atoms: _78  and  _81
REMARK   34  A    between atoms: _81  and  _82
REMARK   35  A    between atoms: _85  and  _87
REMARK   36  A    between atoms: _87  and  _88
REMARK   37  A    between atoms: _87  and  _90
REMARK   38  A    between atoms: _90  and  _91
REMARK   39  A    between atoms: _91  and  _92
REMARK   40  A    between atoms: _92  and  _93
REMARK   41  A    between atoms: _102  and  _104
REMARK   42  A    between atoms: _104  and  _105
REMARK   43  A    between atoms: _104  and  _107
REMARK   44  A    between atoms: _107  and  _108
REMARK   45  A    between atoms: _114  and  _116
REMARK   46  A    between atoms: _116  and  _117
REMARK   47  A    between atoms: _120  and  _121
REMARK   48  A    between atoms: _126  and  _128
REMARK   49  A    between atoms: _128  and  _129
REMARK   50  A    between atoms: _128  and  _131
REMARK   51  A    between atoms: _131  and  _132
REMARK   52  A    between atoms: _132  and  _133
REMARK   53  A    between atoms: _133  and  _134
REMARK   54  A    between atoms: _134  and  _135
REMARK   55  A    between atoms: _139  and  _141
REMARK   56  A    between atoms: _141  and  _142
REMARK   57  A    between atoms: _141  and  _144
REMARK   58  A    between atoms: _144  and  _145
REMARK   59  A    between atoms: _145  and  _146
REMARK   60  A    between atoms: _146  and  _147
REMARK   61  A    between atoms: _156  and  _158
REMARK   62  A    between atoms: _158  and  _159
REMARK   63  A    between atoms: _158  and  _161
REMARK   64  A    between atoms: _161  and  _162
REMARK   65  A    between atoms: _165  and  _167
REMARK   66  A    between atoms: _167  and  _168
REMARK   67  A    between atoms: _167  and  _170
REMARK   68  A    between atoms: _170  and  _171
REMARK   69  A    between atoms: _171  and  _172
REMARK   70  A    between atoms: _175  and  _177
REMARK   71  A    between atoms: _177  and  _178
REMARK   72  A    between atoms: _177  and  _180
REMARK   73  A    between atoms: _180  and  _181
REMARK   74  A    between atoms: _181  and  _182
REMARK   75  A    between atoms: _187  and  _189
REMARK   76  A    between atoms: _189  and  _190
REMARK   77  A    between atoms: _189  and  _192
REMARK   78  A    between atoms: _192  and  _193
REMARK   79  A    between atoms: _199  and  _201
REMARK   80  A    between atoms: _201  and  _202
REMARK   81  A    between atoms: _201  and  _204
REMARK   82  A    between atoms: _204  and  _205
REMARK   83  A    between atoms: _209  and  _210
REMARK   84  A    between atoms: _215  and  _217
REMARK   85  A    between atoms: _217  and  _218
REMARK   86  A    between atoms: _217  and  _220
REMARK   87  A    between atoms: _220  and  _221
REMARK   88  A    between atoms: _223  and  _225
REMARK   89  A    between atoms: _225  and  _226
REMARK   90  A    between atoms: _225  and  _228
REMARK   91  A    between atoms: _228  and  _229
REMARK   92  A    between atoms: _229  and  _230
REMARK   93  A    between atoms: _230  and  _231
REMARK   94  A    between atoms: _240  and  _242
REMARK   95  A    between atoms: _242  and  _243
REMARK   96  A    between atoms: _242  and  _245
REMARK   97  A    between atoms: _245  and  _246
REMARK   98  A    between atoms: _246  and  _247
REMARK   99  A    between atoms: _247  and  _248
REMARK  100  A    between atoms: _257  and  _259
REMARK  101  A    between atoms: _259  and  _260
REMARK  102  A    between atoms: _259  and  _262
REMARK  103  A    between atoms: _262  and  _263
REMARK  104  A    between atoms: _266  and  _268
REMARK  105  A    between atoms: _268  and  _269
REMARK  106  A    between atoms: _268  and  _271
REMARK  107  A    between atoms: _271  and  _272
REMARK  108  A    between atoms: _277  and  _278
REMARK  109  A    between atoms: _280  and  _282
REMARK  110  A    between atoms: _282  and  _283
REMARK  111  A    between atoms: _282  and  _285
REMARK  112  A    between atoms: _285  and  _286
REMARK  113  A    between atoms: _291  and  _293
REMARK  114  A    between atoms: _293  and  _294
REMARK  115  A    between atoms: _293  and  _296
REMARK  116  A    between atoms: _296  and  _297
REMARK  117  A    between atoms: _300  and  _302
REMARK  118  A    between atoms: _302  and  _303
REMARK  119  A    between atoms: _302  and  _305
REMARK  120  A    between atoms: _307  and  _309
REMARK  121  A    between atoms: _309  and  _310
REMARK  122  A    between atoms: _309  and  _312
REMARK  123  A    between atoms: _312  and  _313
REMARK  124  A    between atoms: _313  and  _314
REMARK  125  A    between atoms: _319  and  _321
REMARK  126  A    between atoms: _321  and  _322
REMARK  127  A    between atoms: _321  and  _324
REMARK  128  A    between atoms: _324  and  _325
REMARK  129  A    between atoms: _325  and  _326
REMARK  130  A    between atoms: _329  and  _331
REMARK  131  A    between atoms: _331  and  _332
REMARK  132  A    between atoms: _334  and  _336
REMARK  133  A    between atoms: _336  and  _337
REMARK  134  A    between atoms: _336  and  _339
REMARK  135  A    between atoms: _339  and  _340
REMARK  136  A    between atoms: _345  and  _347
REMARK  137  A    between atoms: _347  and  _348
REMARK  138  A    between atoms: _347  and  _350
REMARK  139  A    between atoms: _350  and  _351
REMARK  140  A    between atoms: _354  and  _356
REMARK  141  A    between atoms: _356  and  _357
REMARK  142  A    between atoms: _356  and  _359
REMARK  143  A    between atoms: _359  and  _360
REMARK  144  A    between atoms: _363  and  _365
REMARK  145  A    between atoms: _365  and  _366
REMARK  146  A    between atoms: _365  and  _368
REMARK  147  A    between atoms: _368  and  _369
REMARK  148  A    between atoms: _369  and  _370
REMARK  149  A    between atoms: _372  and  _374
REMARK  150  A    between atoms: _374  and  _375
REMARK  151  A    between atoms: _374  and  _377
REMARK  152  A    between atoms: _377  and  _378
REMARK  153  A    between atoms: _381  and  _383
REMARK  154  A    between atoms: _383  and  _384
REMARK  155  A    between atoms: _383  and  _386
REMARK  156  A    between atoms: _386  and  _387
REMARK  157  A    between atoms: _390  and  _392
REMARK  158  A    between atoms: _392  and  _393
REMARK  159  A    between atoms: _392  and  _395
REMARK  160  A    between atoms: _395  and  _396
REMARK  161  A    between atoms: _396  and  _397
REMARK  162  A    between atoms: _400  and  _402
REMARK  163  A    between atoms: _402  and  _403
REMARK  164  A    between atoms: _402  and  _405
REMARK  165  A    between atoms: _405  and  _406
REMARK  166  A    between atoms: _411  and  _412
REMARK  167  A    between atoms: _414  and  _416
REMARK  168  A    between atoms: _416  and  _417
REMARK  169  A    between atoms: _416  and  _419
REMARK  170  A    between atoms: _419  and  _420
REMARK  171  A    between atoms: _426  and  _428
REMARK  172  A    between atoms: _428  and  _429
REMARK  173  A    between atoms: _428  and  _431
REMARK  174  A    between atoms: _431  and  _432
REMARK  175  A    between atoms: _437  and  _439
REMARK  176  A    between atoms: _439  and  _440
REMARK  177  A    between atoms: _439  and  _442
REMARK  178  A    between atoms: _442  and  _443
REMARK  179  A    between atoms: _443  and  _444
REMARK  180  A    between atoms: _447  and  _449
REMARK  181  A    between atoms: _449  and  _450
REMARK  182  A    between atoms: _449  and  _452
REMARK  183  A    between atoms: _452  and  _453
REMARK  184  A    between atoms: _458  and  _459
REMARK  185  A    between atoms: _461  and  _463
REMARK  186  A    between atoms: _463  and  _464
REMARK  187  A    between atoms: _463  and  _466
REMARK  188  A    between atoms: _466  and  _467
REMARK  189  A    between atoms: _470  and  _472
REMARK  190  A    between atoms: _472  and  _473
REMARK  191  A    between atoms: _472  and  _475
REMARK  192  A    between atoms: _475  and  _476
REMARK  193  A    between atoms: _481  and  _482
REMARK  194  A    between atoms: _484  and  _486
REMARK  195  A    between atoms: _486  and  _487
REMARK  196  A    between atoms: _486  and  _489
REMARK  197  A    between atoms: _489  and  _490
REMARK  198  A    between atoms: _493  and  _494
REMARK  199  A    between atoms: _499  and  _501
REMARK  200  A    between atoms: _501  and  _502
REMARK  201  A    between atoms: _501  and  _504
REMARK  202  A    between atoms: _504  and  _505
REMARK  203  A    between atoms: _511  and  _513
REMARK  204  A    between atoms: _513  and  _514
REMARK  205  A    between atoms: _513  and  _516
REMARK  206  A    between atoms: _516  and  _517
REMARK  207  A    between atoms: _523  and  _525
REMARK  208  A    between atoms: _525  and  _526
REMARK  209  A    between atoms: _525  and  _528
REMARK  210  A    between atoms: _528  and  _529
REMARK  211  A    between atoms: _531  and  _533
REMARK  212  A    between atoms: _533  and  _534
REMARK  213  A    between atoms: _533  and  _536
REMARK  214  A    between atoms: _536  and  _537
REMARK  215  A    between atoms: _540  and  _542
REMARK  216  A    between atoms: _542  and  _543
REMARK  217  A    between atoms: _542  and  _545
REMARK  218  A    between atoms: _545  and  _546
REMARK  219  A    between atoms: _556  and  _558
REMARK  220  A    between atoms: _558  and  _559
REMARK  221  A    between atoms: _561  and  _563
REMARK  222  A    between atoms: _563  and  _564
REMARK  223  A    between atoms: _563  and  _566
REMARK  224  A    between atoms: _566  and  _567
REMARK  225  A    between atoms: _577  and  _579
REMARK  226  A    between atoms: _579  and  _580
REMARK  227  A    between atoms: _579  and  _582
REMARK  228  A    between atoms: _582  and  _583
REMARK  229  A    between atoms: _585  and  _587
REMARK  230  A    between atoms: _587  and  _588
REMARK  231  A    between atoms: _587  and  _590
REMARK  232  A    between atoms: _590  and  _591
REMARK  233  A    between atoms: _591  and  _592
REMARK  234  A    between atoms: _597  and  _599
REMARK  235  A    between atoms: _599  and  _600
REMARK  236  A    between atoms: _599  and  _602
REMARK  237  A    between atoms: _602  and  _603
REMARK  238  A    between atoms: _605  and  _607
REMARK  239  A    between atoms: _607  and  _608
REMARK  240  A    between atoms: _607  and  _610
REMARK  241  A    between atoms: _610  and  _611
REMARK  242  A    between atoms: _614  and  _616
REMARK  243  A    between atoms: _616  and  _617
REMARK  244  A    between atoms: _616  and  _619
REMARK  245  A    between atoms: _619  and  _620
REMARK  246  A    between atoms: _620  and  _621
REMARK  247  A    between atoms: _624  and  _626
REMARK  248  A    between atoms: _626  and  _627
REMARK  249  A    between atoms: _626  and  _629
REMARK  250  A    between atoms: _629  and  _630
REMARK  251  A    between atoms: _636  and  _638
REMARK  252  A    between atoms: _638  and  _639
REMARK  253  A    between atoms: _641  and  _643
REMARK  254  A    between atoms: _643  and  _644
REMARK  255  A    between atoms: _643  and  _646
REMARK  256  A    between atoms: _646  and  _647
REMARK  257  A    between atoms: _652  and  _653
REMARK  258  A    between atoms: _655  and  _657
REMARK  259  A    between atoms: _657  and  _658
REMARK  260  A    between atoms: _657  and  _660
REMARK  261  A    between atoms: _660  and  _661
REMARK  262  A    between atoms: _666  and  _667
REMARK  263  A    between atoms: _669  and  _671
REMARK  264  A    between atoms: _671  and  _672
REMARK  265  A    between atoms: _671  and  _674
REMARK  266  A    between atoms: _674  and  _675
REMARK  267  A    between atoms: _675  and  _676
REMARK  268  A    between atoms: _676  and  _677
REMARK                            x       y       z     vdW  Elec       q    Type
REMARK                         _______ _______ _______ _____ _____    ______ ____
ROOT
ATOM      1  CA  ARG A   2     -15.934  13.763 -20.224  0.00  0.00    +0.137 C 
ENDROOT
BRANCH   1   4
ATOM      2  C   ILE A   1     -18.137  12.848 -20.755  0.00  0.00    +0.238 C 
ATOM      3  O   ILE A   1     -18.702  13.538 -19.905  0.00  0.00    -0.274 OA
ATOM      4  N   ARG A   2     -16.819  12.847 -20.940  0.00  0.00    -0.298 N 
ATOM      5  H   ARG A   2     -16.406  12.173 -21.616  0.00  0.00    +0.150 HD
BRANCH   2   6
ATOM      6  CA  ILE A   1     -18.949  11.922 -21.653  0.00  0.00    +0.145 C 
BRANCH   6   7
ATOM      7  N   ILE A   1     -18.403  11.940 -23.011  0.00  0.00    -0.238 NA
ATOM      8  H   ILE A   1     -17.549  11.386 -23.221  0.00  0.00    +0.142 HD
ENDBRANCH   6   7
BRANCH   6   9
ATOM      9  CB  ILE A   1     -18.975  10.513 -21.046  0.00  0.00    +0.025 C 
ATOM     10  CG2 ILE A   1     -19.211  10.567 -19.539  0.00  0.00    +0.002 C 
BRANCH   9  11
ATOM     11  CG1 ILE A   1     -20.071   9.692 -21.718  0.00  0.00    +0.002 C 
ATOM     12  CD1 ILE A   1     -20.028   8.219 -21.382  0.00  0.00    +0.000 C 
ENDBRANCH   9  11
ENDBRANCH   6   9
ENDBRANCH   2   6
ENDBRANCH   1   4
BRANCH   1  13
ATOM     13  C   ARG A   2     -14.688  14.086 -21.046  0.00  0.00    +0.227 C 
ATOM     14  O   ARG A   2     -13.974  13.182 -21.504  0.00  0.00    -0.286 OA
ENDBRANCH   1  13
BRANCH   1  15
ATOM     15  CB  ARG A   2     -15.536  13.196 -18.851  0.00  0.00    +0.031 C 
BRANCH  15  16
ATOM     16  CG  ARG A   2     -15.389  14.257 -17.771  0.00  0.00    +0.045 C 
BRANCH  16  17
ATOM     17  CD  ARG A   2     -15.002  13.661 -16.426  0.00  0.00    +0.174 C 
BRANCH  17  18
ATOM     18  NE  ARG A   2     -13.567  13.397 -16.349  0.00  0.00    -0.265 N 
ATOM     19  CZ  ARG A   2     -13.014  12.190 -16.253  0.00  0.00    +0.342 C 
ATOM     20  NH2 ARG A   2     -11.694  12.068 -16.192  0.00  0.00    -0.292 N 
ATOM     21 HH21 ARG A   2     -11.262  11.125 -16.117  0.00  0.00    +0.255 HD
ATOM     22 HH22 ARG A   2     -11.092  12.915 -16.219  0.00  0.00    +0.255 HD
ATOM     23  NH1 ARG A   2     -13.770  11.103 -16.201  0.00  0.00    -0.292 N 
ATOM     24 HH11 ARG A   2     -13.327  10.165 -16.126  0.00  0.00    +0.255 HD
ATOM     25 HH12 ARG A   2     -14.806  11.188 -16.235  0.00  0.00    +0.255 HD
ATOM     26  HE  ARG A   2     -12.927  14.217 -16.371  0.00  0.00    +0.259 HD
ENDBRANCH  17  18
ENDBRANCH  16  17
ENDBRANCH  15  16
ENDBRANCH   1  15
TORSDOF 10
REMARK  Name = ../refined-set-2016/3zm9/3zm9_pocket.pdb
REMARK  268 active torsions:
REMARK  status: ('A' for Active; 'I' for Inactive)
REMARK    1  A    between atoms: _1  and  _3
REMARK    2  A    between atoms: _3  and  _4
REMARK    3  A    between atoms: _3  and  _6
REMARK    4  A    between atoms: _6  and  _7
REMARK    5  A    between atoms: _10  and  _12
REMARK    6  A    between atoms: _12  and  _13
REMARK    7  A    between atoms: _12  and  _15
REMARK    8  A    between atoms: _15  and  _16
REMARK    9  A    between atoms: _16  and  _17
REMARK   10  A    between atoms: _17  and  _18
REMARK   11  A    between atoms: _27  and  _29
REMARK   12  A    between atoms: _29  and  _30
REMARK   13  A    between atoms: _29  and  _32
REMARK   14  A    between atoms: _32  and  _33
REMARK   15  A    between atoms: _38  and  _40
REMARK   16  A    between atoms: _40  and  _41
REMARK   17  A    between atoms: _40  and  _43
REMARK   18  A    between atoms: _43  and  _44
REMARK   19  A    between atoms: _47  and  _49
REMARK   20  A    between atoms: _49  and  _50
REMARK   21  A    between atoms: _49  and  _52
REMARK   22  A    between atoms: _52  and  _53
REMARK   23  A    between atoms: _53  and  _54
REMARK   24  A    between atoms: _59  and  _61
REMARK   25  A    between atoms: _61  and  _62
REMARK   26  A    between atoms: _61  and  _64
REMARK   27  A    between atoms: _67  and  _69
REMARK   28  A    between atoms: _69  and  _70
REMARK   29  A    between atoms: _69  and  _72
REMARK   30  A    between atoms: _72  and  _73
REMARK   31  A    between atoms: _76  and  _78
REMARK   32  A    between atoms: _78  and  _79
REMARK   33  A    between atoms: _78  and  _81
REMARK   34  A    between atoms: _81  and  _82
REMARK   35  A    between atoms: _85  and  _87
REMARK   36  A    between atoms: _87  and  _88
REMARK   37  A    between atoms: _87  and  _90
REMARK   38  A    between atoms: _90  and  _91
REMARK   39  A    between atoms: _91  and  _92
REMARK   40  A    between atoms: _92  and  _93
REMARK   41  A    between atoms: _102  and  _104
REMARK   42  A    between atoms: _104  and  _105
REMARK   43  A    between atoms: _104  and  _107
REMARK   44  A    between atoms: _107  and  _108
REMARK   45  A    between atoms: _114  and  _116
REMARK   46  A    between atoms: _116  and  _117
REMARK   47  A    between atoms: _120  and  _121
REMARK   48  A    between atoms: _126  and  _128
REMARK   49  A    between atoms: _128  and  _129
REMARK   50  A    between atoms: _128  and  _131
REMARK   51  A    between atoms: _131  and  _132
REMARK   52  A    between atoms: _132  and  _133
REMARK   53  A    between atoms: _133  and  _134
REMARK   54  A    between atoms: _134  and  _135
REMARK   55  A    between atoms: _139  and  _141
REMARK   56  A    between atoms: _141  and  _142
REMARK   57  A    between atoms: _141  and  _144
REMARK   58  A    between atoms: _144  and  _145
REMARK   59  A    between atoms: _145  and  _146
REMARK   60  A    between atoms: _146  and  _147
REMARK   61  A    between atoms: _156  and  _158
REMARK   62  A    between atoms: _158  and  _159
REMARK   63  A    between atoms: _158  and  _161
REMARK   64  A    between atoms: _161  and  _162
REMARK   65  A    between atoms: _165  and  _167
REMARK   66  A    between atoms: _167  and  _168
REMARK   67  A    between atoms: _167  and  _170
REMARK   68  A    between atoms: _170  and  _171
REMARK   69  A    between atoms: _171  and  _172
REMARK   70  A    between atoms: _175  and  _177
REMARK   71  A    between atoms: _177  and  _178
REMARK   72  A    between atoms: _177  and  _180
REMARK   73  A    between atoms: _180  and  _181
REMARK   74  A    between atoms: _181  and  _182
REMARK   75  A    between atoms: _187  and  _189
REMARK   76  A    between atoms: _189  and  _190
REMARK   77  A    between atoms: _189  and  _192
REMARK   78  A    between atoms: _192  and  _193
REMARK   79  A    between atoms: _199  and  _201
REMARK   80  A    between atoms: _201  and  _202
REMARK   81  A    between atoms: _201  and  _204
REMARK   82  A    between atoms: _204  and  _205
REMARK   83  A    between atoms: _209  and  _210
REMARK   84  A    between atoms: _215  and  _217
REMARK   85  A    between atoms: _217  and  _218
REMARK   86  A    between atoms: _217  and  _220
REMARK   87  A    between atoms: _220  and  _221
REMARK   88  A    between atoms: _223  and  _225
REMARK   89  A    between atoms: _225  and  _226
REMARK   90  A    between atoms: _225  and  _228
REMARK   91  A    between atoms: _228  and  _229
REMARK   92  A    between atoms: _229  and  _230
REMARK   93  A    between atoms: _230  and  _231
REMARK   94  A    between atoms: _240  and  _242
REMARK   95  A    between atoms: _242  and  _243
REMARK   96  A    between atoms: _242  and  _245
REMARK   97  A    between atoms: _245  and  _246
REMARK   98  A    between atoms: _246  and  _247
REMARK   99  A    between atoms: _247  and  _248
REMARK  100  A    between atoms: _257  and  _259
REMARK  101  A    between atoms: _259  and  _260
REMARK  102  A    between atoms: _259  and  _262
REMARK  103  A    between atoms: _262  and  _263
REMARK  104  A    between atoms: _266  and  _268
REMARK  105  A    between atoms: _268  and  _269
REMARK  106  A    between atoms: _268  and  _271
REMARK  107  A    between atoms: _271  and  _272
REMARK  108  A    between atoms: _277  and  _278
REMARK  109  A    between atoms: _280  and  _282
REMARK  110  A    between atoms: _282  and  _283
REMARK  111  A    between atoms: _282  and  _285
REMARK  112  A    between atoms: _285  and  _286
REMARK  113  A    between atoms: _291  and  _293
REMARK  114  A    between atoms: _293  and  _294
REMARK  115  A    between atoms: _293  and  _296
REMARK  116  A    between atoms: _296  and  _297
REMARK  117  A    between atoms: _300  and  _302
REMARK  118  A    between atoms: _302  and  _303
REMARK  119  A    between atoms: _302  and  _305
REMARK  120  A    between atoms: _307  and  _309
REMARK  121  A    between atoms: _309  and  _310
REMARK  122  A    between atoms: _309  and  _312
REMARK  123  A    between atoms: _312  and  _313
REMARK  124  A    between atoms: _313  and  _314
REMARK  125  A    between atoms: _319  and  _321
REMARK  126  A    between atoms: _321  and  _322
REMARK  127  A    between atoms: _321  and  _324
REMARK  128  A    between atoms: _324  and  _325
REMARK  129  A    between atoms: _325  and  _326
REMARK  130  A    between atoms: _329  and  _331
REMARK  131  A    between atoms: _331  and  _332
REMARK  132  A    between atoms: _334  and  _336
REMARK  133  A    between atoms: _336  and  _337
REMARK  134  A    between atoms: _336  and  _339
REMARK  135  A    between atoms: _339  and  _340
REMARK  136  A    between atoms: _345  and  _347
REMARK  137  A    between atoms: _347  and  _348
REMARK  138  A    between atoms: _347  and  _350
REMARK  139  A    between atoms: _350  and  _351
REMARK  140  A    between atoms: _354  and  _356
REMARK  141  A    between atoms: _356  and  _357
REMARK  142  A    between atoms: _356  and  _359
REMARK  143  A    between atoms: _359  and  _360
REMARK  144  A    between atoms: _363  and  _365
REMARK  145  A    between atoms: _365  and  _366
REMARK  146  A    between atoms: _365  and  _368
REMARK  147  A    between atoms: _368  and  _369
REMARK  148  A    between atoms: _369  and  _370
REMARK  149  A    between atoms: _372  and  _374
REMARK  150  A    between atoms: _374  and  _375
REMARK  151  A    between atoms: _374  and  _377
REMARK  152  A    between atoms: _377  and  _378
REMARK  153  A    between atoms: _381  and  _383
REMARK  154  A    between atoms: _383  and  _384
REMARK  155  A    between atoms: _383  and  _386
REMARK  156  A    between atoms: _386  and  _387
REMARK  157  A    between atoms: _390  and  _392
REMARK  158  A    between atoms: _392  and  _393
REMARK  159  A    between atoms: _392  and  _395
REMARK  160  A    between atoms: _395  and  _396
REMARK  161  A    between atoms: _396  and  _397
REMARK  162  A    between atoms: _400  and  _402
REMARK  163  A    between atoms: _402  and  _403
REMARK  164  A    between atoms: _402  and  _405
REMARK  165  A    between atoms: _405  and  _406
REMARK  166  A    between atoms: _411  and  _412
REMARK  167  A    between atoms: _414  and  _416
REMARK  168  A    between atoms: _416  and  _417
REMARK  169  A    between atoms: _416  and  _419
REMARK  170  A    between atoms: _419  and  _420
REMARK  171  A    between atoms: _426  and  _428
REMARK  172  A    between atoms: _428  and  _429
REMARK  173  A    between atoms: _428  and  _431
REMARK  174  A    between atoms: _431  and  _432
REMARK  175  A    between atoms: _437  and  _439
REMARK  176  A    between atoms: _439  and  _440
REMARK  177  A    between atoms: _439  and  _442
REMARK  178  A    between atoms: _442  and  _443
REMARK  179  A    between atoms: _443  and  _444
REMARK  180  A    between atoms: _447  and  _449
REMARK  181  A    between atoms: _449  and  _450
REMARK  182  A    between atoms: _449  and  _452
REMARK  183  A    between atoms: _452  and  _453
REMARK  184  A    between atoms: _458  and  _459
REMARK  185  A    between atoms: _461  and  _463
REMARK  186  A    between atoms: _463  and  _464
REMARK  187  A    between atoms: _463  and  _466
REMARK  188  A    between atoms: _466  and  _467
REMARK  189  A    between atoms: _470  and  _472
REMARK  190  A    between atoms: _472  and  _473
REMARK  191  A    between atoms: _472  and  _475
REMARK  192  A    between atoms: _475  and  _476
REMARK  193  A    between atoms: _481  and  _482
REMARK  194  A    between atoms: _484  and  _486
REMARK  195  A    between atoms: _486  and  _487
REMARK  196  A    between atoms: _486  and  _489
REMARK  197  A    between atoms: _489  and  _490
REMARK  198  A    between atoms: _493  and  _494
REMARK  199  A    between atoms: _499  and  _501
REMARK  200  A    between atoms: _501  and  _502
REMARK  201  A    between atoms: _501  and  _504
REMARK  202  A    between atoms: _504  and  _505
REMARK  203  A    between atoms: _511  and  _513
REMARK  204  A    between atoms: _513  and  _514
REMARK  205  A    between atoms: _513  and  _516
REMARK  206  A    between atoms: _516  and  _517
REMARK  207  A    between atoms: _523  and  _525
REMARK  208  A    between atoms: _525  and  _526
REMARK  209  A    between atoms: _525  and  _528
REMARK  210  A    between atoms: _528  and  _529
REMARK  211  A    between atoms: _531  and  _533
REMARK  212  A    between atoms: _533  and  _534
REMARK  213  A    between atoms: _533  and  _536
REMARK  214  A    between atoms: _536  and  _537
REMARK  215  A    between atoms: _540  and  _542
REMARK  216  A    between atoms: _542  and  _543
REMARK  217  A    between atoms: _542  and  _545
REMARK  218  A    between atoms: _545  and  _546
REMARK  219  A    between atoms: _556  and  _558
REMARK  220  A    between atoms: _558  and  _559
REMARK  221  A    between atoms: _561  and  _563
REMARK  222  A    between atoms: _563  and  _564
REMARK  223  A    between atoms: _563  and  _566
REMARK  224  A    between atoms: _566  and  _567
REMARK  225  A    between atoms: _577  and  _579
REMARK  226  A    between atoms: _579  and  _580
REMARK  227  A    between atoms: _579  and  _582
REMARK  228  A    between atoms: _582  and  _583
REMARK  229  A    between atoms: _585  and  _587
REMARK  230  A    between atoms: _587  and  _588
REMARK  231  A    between atoms: _587  and  _590
REMARK  232  A    between atoms: _590  and  _591
REMARK  233  A    between atoms: _591  and  _592
REMARK  234  A    between atoms: _597  and  _599
REMARK  235  A    between atoms: _599  and  _600
REMARK  236  A    between atoms: _599  and  _602
REMARK  237  A    between atoms: _602  and  _603
REMARK  238  A    between atoms: _605  and  _607
REMARK  239  A    between atoms: _607  and  _608
REMARK  240  A    between atoms: _607  and  _610
REMARK  241  A    between atoms: _610  and  _611
REMARK  242  A    between atoms: _614  and  _616
REMARK  243  A    between atoms: _616  and  _617
REMARK  244  A    between atoms: _616  and  _619
REMARK  245  A    between atoms: _619  and  _620
REMARK  246  A    between atoms: _620  and  _621
REMARK  247  A    between atoms: _624  and  _626
REMARK  248  A    between atoms: _626  and  _627
REMARK  249  A    between atoms: _626  and  _629
REMARK  250  A    between atoms: _629  and  _630
REMARK  251  A    between atoms: _636  and  _638
REMARK  252  A    between atoms: _638  and  _639
REMARK  253  A    between atoms: _641  and  _643
REMARK  254  A    between atoms: _643  and  _644
REMARK  255  A    between atoms: _643  and  _646
REMARK  256  A    between atoms: _646  and  _647
REMARK  257  A    between atoms: _652  and  _653
REMARK  258  A    between atoms: _655  and  _657
REMARK  259  A    between atoms: _657  and  _658
REMARK  260  A    between atoms: _657  and  _660
REMARK  261  A    between atoms: _660  and  _661
REMARK  262  A    between atoms: _666  and  _667
REMARK  263  A    between atoms: _669  and  _671
REMARK  264  A    between atoms: _671  and  _672
REMARK  265  A    between atoms: _671  and  _674
REMARK  266  A    between atoms: _674  and  _675
REMARK  267  A    between atoms: _675  and  _676
REMARK  268  A    between atoms: _676  and  _677
REMARK                            x       y       z     vdW  Elec       q    Type
REMARK                         _______ _______ _______ _____ _____    ______ ____
ROOT
ATOM      1  CB  ASN A   1      -9.423   9.545 -17.345  0.00  0.00    +0.110 C 
ENDROOT
BRANCH   1   2
ATOM      2  CG  ASN A   1      -8.880   8.197 -16.945  0.00  0.00    +0.221 C 
ATOM      3  ND2 ASN A   1      -9.688   7.418 -16.239  0.00  0.00    -0.329 N 
ATOM      4 HD21 ASN A   1      -9.372   6.471 -15.946  0.00  0.00    +0.145 HD
ATOM      5 HD22 ASN A   1     -10.637   7.754 -15.979  0.00  0.00    +0.145 HD
ATOM      6  OD1 ASN A   1      -7.749   7.852 -17.280  0.00  0.00    -0.275 OA
ENDBRANCH   1   2
BRANCH   1   7
ATOM      7  CA  ASN A   1      -9.148   9.862 -18.813  0.00  0.00    +0.142 C 
BRANCH   7   8
ATOM      8  N   ASN A   1      -7.892  10.596 -18.981  0.00  0.00    -0.239 NA
ATOM      9  H   ASN A   1      -7.029  10.061 -19.205  0.00  0.00    +0.142 HD
ENDBRANCH   7   8
BRANCH   7  10
ATOM     10  C   ASN A   1     -10.354  10.514 -19.490  0.00  0.00    +0.225 C 
ATOM     11  O   ASN A   1     -11.365  10.837 -18.837  0.00  0.00    -0.287 OA
ENDBRANCH   7  10
ENDBRANCH   1   7
TORSDOF 4
REMARK  Name = ../refined-set-2016/3zm9/3zm9_pocket.pdb
REMARK  268 active torsions:
REMARK  status: ('A' for Active; 'I' for Inactive)
REMARK    1  A    between atoms: _1  and  _3
REMARK    2  A    between atoms: _3  and  _4
REMARK    3  A    between atoms: _3  and  _6
REMARK    4  A    between atoms: _6  and  _7
REMARK    5  A    between atoms: _10  and  _12
REMARK    6  A    between atoms: _12  and  _13
REMARK    7  A    between atoms: _12  and  _15
REMARK    8  A    between atoms: _15  and  _16
REMARK    9  A    between atoms: _16  and  _17
REMARK   10  A    between atoms: _17  and  _18
REMARK   11  A    between atoms: _27  and  _29
REMARK   12  A    between atoms: _29  and  _30
REMARK   13  A    between atoms: _29  and  _32
REMARK   14  A    between atoms: _32  and  _33
REMARK   15  A    between atoms: _38  and  _40
REMARK   16  A    between atoms: _40  and  _41
REMARK   17  A    between atoms: _40  and  _43
REMARK   18  A    between atoms: _43  and  _44
REMARK   19  A    between atoms: _47  and  _49
REMARK   20  A    between atoms: _49  and  _50
REMARK   21  A    between atoms: _49  and  _52
REMARK   22  A    between atoms: _52  and  _53
REMARK   23  A    between atoms: _53  and  _54
REMARK   24  A    between atoms: _59  and  _61
REMARK   25  A    between atoms: _61  and  _62
REMARK   26  A    between atoms: _61  and  _64
REMARK   27  A    between atoms: _67  and  _69
REMARK   28  A    between atoms: _69  and  _70
REMARK   29  A    between atoms: _69  and  _72
REMARK   30  A    between atoms: _72  and  _73
REMARK   31  A    between atoms: _76  and  _78
REMARK   32  A    between atoms: _78  and  _79
REMARK   33  A    between atoms: _78  and  _81
REMARK   34  A    between atoms: _81  and  _82
REMARK   35  A    between atoms: _85  and  _87
REMARK   36  A    between atoms: _87  and  _88
REMARK   37  A    between atoms: _87  and  _90
REMARK   38  A    between atoms: _90  and  _91
REMARK   39  A    between atoms: _91  and  _92
REMARK   40  A    between atoms: _92  and  _93
REMARK   41  A    between atoms: _102  and  _104
REMARK   42  A    between atoms: _104  and  _105
REMARK   43  A    between atoms: _104  and  _107
REMARK   44  A    between atoms: _107  and  _108
REMARK   45  A    between atoms: _114  and  _116
REMARK   46  A    between atoms: _116  and  _117
REMARK   47  A    between atoms: _120  and  _121
REMARK   48  A    between atoms: _126  and  _128
REMARK   49  A    between atoms: _128  and  _129
REMARK   50  A    between atoms: _128  and  _131
REMARK   51  A    between atoms: _131  and  _132
REMARK   52  A    between atoms: _132  and  _133
REMARK   53  A    between atoms: _133  and  _134
REMARK   54  A    between atoms: _134  and  _135
REMARK   55  A    between atoms: _139  and  _141
REMARK   56  A    between atoms: _141  and  _142
REMARK   57  A    between atoms: _141  and  _144
REMARK   58  A    between atoms: _144  and  _145
REMARK   59  A    between atoms: _145  and  _146
REMARK   60  A    between atoms: _146  and  _147
REMARK   61  A    between atoms: _156  and  _158
REMARK   62  A    between atoms: _158  and  _159
REMARK   63  A    between atoms: _158  and  _161
REMARK   64  A    between atoms: _161  and  _162
REMARK   65  A    between atoms: _165  and  _167
REMARK   66  A    between atoms: _167  and  _168
REMARK   67  A    between atoms: _167  and  _170
REMARK   68  A    between atoms: _170  and  _171
REMARK   69  A    between atoms: _171  and  _172
REMARK   70  A    between atoms: _175  and  _177
REMARK   71  A    between atoms: _177  and  _178
REMARK   72  A    between atoms: _177  and  _180
REMARK   73  A    between atoms: _180  and  _181
REMARK   74  A    between atoms: _181  and  _182
REMARK   75  A    between atoms: _187  and  _189
REMARK   76  A    between atoms: _189  and  _190
REMARK   77  A    between atoms: _189  and  _192
REMARK   78  A    between atoms: _192  and  _193
REMARK   79  A    between atoms: _199  and  _201
REMARK   80  A    between atoms: _201  and  _202
REMARK   81  A    between atoms: _201  and  _204
REMARK   82  A    between atoms: _204  and  _205
REMARK   83  A    between atoms: _209  and  _210
REMARK   84  A    between atoms: _215  and  _217
REMARK   85  A    between atoms: _217  and  _218
REMARK   86  A    between atoms: _217  and  _220
REMARK   87  A    between atoms: _220  and  _221
REMARK   88  A    between atoms: _223  and  _225
REMARK   89  A    between atoms: _225  and  _226
REMARK   90  A    between atoms: _225  and  _228
REMARK   91  A    between atoms: _228  and  _229
REMARK   92  A    between atoms: _229  and  _230
REMARK   93  A    between atoms: _230  and  _231
REMARK   94  A    between atoms: _240  and  _242
REMARK   95  A    between atoms: _242  and  _243
REMARK   96  A    between atoms: _242  and  _245
REMARK   97  A    between atoms: _245  and  _246
REMARK   98  A    between atoms: _246  and  _247
REMARK   99  A    between atoms: _247  and  _248
REMARK  100  A    between atoms: _257  and  _259
REMARK  101  A    between atoms: _259  and  _260
REMARK  102  A    between atoms: _259  and  _262
REMARK  103  A    between atoms: _262  and  _263
REMARK  104  A    between atoms: _266  and  _268
REMARK  105  A    between atoms: _268  and  _269
REMARK  106  A    between atoms: _268  and  _271
REMARK  107  A    between atoms: _271  and  _272
REMARK  108  A    between atoms: _277  and  _278
REMARK  109  A    between atoms: _280  and  _282
REMARK  110  A    between atoms: _282  and  _283
REMARK  111  A    between atoms: _282  and  _285
REMARK  112  A    between atoms: _285  and  _286
REMARK  113  A    between atoms: _291  and  _293
REMARK  114  A    between atoms: _293  and  _294
REMARK  115  A    between atoms: _293  and  _296
REMARK  116  A    between atoms: _296  and  _297
REMARK  117  A    between atoms: _300  and  _302
REMARK  118  A    between atoms: _302  and  _303
REMARK  119  A    between atoms: _302  and  _305
REMARK  120  A    between atoms: _307  and  _309
REMARK  121  A    between atoms: _309  and  _310
REMARK  122  A    between atoms: _309  and  _312
REMARK  123  A    between atoms: _312  and  _313
REMARK  124  A    between atoms: _313  and  _314
REMARK  125  A    between atoms: _319  and  _321
REMARK  126  A    between atoms: _321  and  _322
REMARK  127  A    between atoms: _321  and  _324
REMARK  128  A    between atoms: _324  and  _325
REMARK  129  A    between atoms: _325  and  _326
REMARK  130  A    between atoms: _329  and  _331
REMARK  131  A    between atoms: _331  and  _332
REMARK  132  A    between atoms: _334  and  _336
REMARK  133  A    between atoms: _336  and  _337
REMARK  134  A    between atoms: _336  and  _339
REMARK  135  A    between atoms: _339  and  _340
REMARK  136  A    between atoms: _345  and  _347
REMARK  137  A    between atoms: _347  and  _348
REMARK  138  A    between atoms: _347  and  _350
REMARK  139  A    between atoms: _350  and  _351
REMARK  140  A    between atoms: _354  and  _356
REMARK  141  A    between atoms: _356  and  _357
REMARK  142  A    between atoms: _356  and  _359
REMARK  143  A    between atoms: _359  and  _360
REMARK  144  A    between atoms: _363  and  _365
REMARK  145  A    between atoms: _365  and  _366
REMARK  146  A    between atoms: _365  and  _368
REMARK  147  A    between atoms: _368  and  _369
REMARK  148  A    between atoms: _369  and  _370
REMARK  149  A    between atoms: _372  and  _374
REMARK  150  A    between atoms: _374  and  _375
REMARK  151  A    between atoms: _374  and  _377
REMARK  152  A    between atoms: _377  and  _378
REMARK  153  A    between atoms: _381  and  _383
REMARK  154  A    between atoms: _383  and  _384
REMARK  155  A    between atoms: _383  and  _386
REMARK  156  A    between atoms: _386  and  _387
REMARK  157  A    between atoms: _390  and  _392
REMARK  158  A    between atoms: _392  and  _393
REMARK  159  A    between atoms: _392  and  _395
REMARK  160  A    between atoms: _395  and  _396
REMARK  161  A    between atoms: _396  and  _397
REMARK  162  A    between atoms: _400  and  _402
REMARK  163  A    between atoms: _402  and  _403
REMARK  164  A    between atoms: _402  and  _405
REMARK  165  A    between atoms: _405  and  _406
REMARK  166  A    between atoms: _411  and  _412
REMARK  167  A    between atoms: _414  and  _416
REMARK  168  A    between atoms: _416  and  _417
REMARK  169  A    between atoms: _416  and  _419
REMARK  170  A    between atoms: _419  and  _420
REMARK  171  A    between atoms: _426  and  _428
REMARK  172  A    between atoms: _428  and  _429
REMARK  173  A    between atoms: _428  and  _431
REMARK  174  A    between atoms: _431  and  _432
REMARK  175  A    between atoms: _437  and  _439
REMARK  176  A    between atoms: _439  and  _440
REMARK  177  A    between atoms: _439  and  _442
REMARK  178  A    between atoms: _442  and  _443
REMARK  179  A    between atoms: _443  and  _444
REMARK  180  A    between atoms: _447  and  _449
REMARK  181  A    between atoms: _449  and  _450
REMARK  182  A    between atoms: _449  and  _452
REMARK  183  A    between atoms: _452  and  _453
REMARK  184  A    between atoms: _458  and  _459
REMARK  185  A    between atoms: _461  and  _463
REMARK  186  A    between atoms: _463  and  _464
REMARK  187  A    between atoms: _463  and  _466
REMARK  188  A    between atoms: _466  and  _467
REMARK  189  A    between atoms: _470  and  _472
REMARK  190  A    between atoms: _472  and  _473
REMARK  191  A    between atoms: _472  and  _475
REMARK  192  A    between atoms: _475  and  _476
REMARK  193  A    between atoms: _481  and  _482
REMARK  194  A    between atoms: _484  and  _486
REMARK  195  A    between atoms: _486  and  _487
REMARK  196  A    between atoms: _486  and  _489
REMARK  197  A    between atoms: _489  and  _490
REMARK  198  A    between atoms: _493  and  _494
REMARK  199  A    between atoms: _499  and  _501
REMARK  200  A    between atoms: _501  and  _502
REMARK  201  A    between atoms: _501  and  _504
REMARK  202  A    between atoms: _504  and  _505
REMARK  203  A    between atoms: _511  and  _513
REMARK  204  A    between atoms: _513  and  _514
REMARK  205  A    between atoms: _513  and  _516
REMARK  206  A    between atoms: _516  and  _517
REMARK  207  A    between atoms: _523  and  _525
REMARK  208  A    between atoms: _525  and  _526
REMARK  209  A    between atoms: _525  and  _528
REMARK  210  A    between atoms: _528  and  _529
REMARK  211  A    between atoms: _531  and  _533
REMARK  212  A    between atoms: _533  and  _534
REMARK  213  A    between atoms: _533  and  _536
REMARK  214  A    between atoms: _536  and  _537
REMARK  215  A    between atoms: _540  and  _542
REMARK  216  A    between atoms: _542  and  _543
REMARK  217  A    between atoms: _542  and  _545
REMARK  218  A    between atoms: _545  and  _546
REMARK  219  A    between atoms: _556  and  _558
REMARK  220  A    between atoms: _558  and  _559
REMARK  221  A    between atoms: _561  and  _563
REMARK  222  A    between atoms: _563  and  _564
REMARK  223  A    between atoms: _563  and  _566
REMARK  224  A    between atoms: _566  and  _567
REMARK  225  A    between atoms: _577  and  _579
REMARK  226  A    between atoms: _579  and  _580
REMARK  227  A    between atoms: _579  and  _582
REMARK  228  A    between atoms: _582  and  _583
REMARK  229  A    between atoms: _585  and  _587
REMARK  230  A    between atoms: _587  and  _588
REMARK  231  A    between atoms: _587  and  _590
REMARK  232  A    between atoms: _590  and  _591
REMARK  233  A    between atoms: _591  and  _592
REMARK  234  A    between atoms: _597  and  _599
REMARK  235  A    between atoms: _599  and  _600
REMARK  236  A    between atoms: _599  and  _602
REMARK  237  A    between atoms: _602  and  _603
REMARK  238  A    between atoms: _605  and  _607
REMARK  239  A    between atoms: _607  and  _608
REMARK  240  A    between atoms: _607  and  _610
REMARK  241  A    between atoms: _610  and  _611
REMARK  242  A    between atoms: _614  and  _616
REMARK  243  A    between atoms: _616  and  _617
REMARK  244  A    between atoms: _616  and  _619
REMARK  245  A    between atoms: _619  and  _620
REMARK  246  A    between atoms: _620  and  _621
REMARK  247  A    between atoms: _624  and  _626
REMARK  248  A    between atoms: _626  and  _627
REMARK  249  A    between atoms: _626  and  _629
REMARK  250  A    between atoms: _629  and  _630
REMARK  251  A    between atoms: _636  and  _638
REMARK  252  A    between atoms: _638  and  _639
REMARK  253  A    between atoms: _641  and  _643
REMARK  254  A    between atoms: _643  and  _644
REMARK  255  A    between atoms: _643  and  _646
REMARK  256  A    between atoms: _646  and  _647
REMARK  257  A    between atoms: _652  and  _653
REMARK  258  A    between atoms: _655  and  _657
REMARK  259  A    between atoms: _657  and  _658
REMARK  260  A    between atoms: _657  and  _660
REMARK  261  A    between atoms: _660  and  _661
REMARK  262  A    between atoms: _666  and  _667
REMARK  263  A    between atoms: _669  and  _671
REMARK  264  A    between atoms: _671  and  _672
REMARK  265  A    between atoms: _671  and  _674
REMARK  266  A    between atoms: _674  and  _675
REMARK  267  A    between atoms: _675  and  _676
REMARK  268  A    between atoms: _676  and  _677
REMARK                            x       y       z     vdW  Elec       q    Type
REMARK                         _______ _______ _______ _____ _____    ______ ____
ROOT
ATOM      1  CA  LEU A   1     -14.581   9.195 -21.612  0.00  0.00    +0.133 C 
ENDROOT
BRANCH   1   2
ATOM      2  N   LEU A   1     -13.574  10.227 -21.568  0.00  0.00    -0.239 NA
ATOM      3  H   LEU A   1     -13.868  11.213 -21.416  0.00  0.00    +0.142 HD
ENDBRANCH   1   2
BRANCH   1   4
ATOM      4  C   LEU A   1     -15.535   9.491 -22.744  0.00  0.00    +0.224 C 
ATOM      5  O   LEU A   1     -15.896  10.653 -22.967  0.00  0.00    -0.287 OA
ENDBRANCH   1   4
BRANCH   1   6
ATOM      6  CB  LEU A   1     -15.342   9.145 -20.282  0.00  0.00    +0.025 C 
BRANCH   6   7
ATOM      7  CG  LEU A   1     -14.498   8.905 -19.023  0.00  0.00    +0.002 C 
ATOM      8  CD2 LEU A   1     -15.374   8.866 -17.781  0.00  0.00    +0.000 C 
ATOM      9  CD1 LEU A   1     -13.687   7.624 -19.124  0.00  0.00    +0.000 C 
ENDBRANCH   6   7
ENDBRANCH   1   6
TORSDOF 4
REMARK  Name = ../refined-set-2016/3zm9/3zm9_pocket.pdb
REMARK  268 active torsions:
REMARK  status: ('A' for Active; 'I' for Inactive)
REMARK    1  A    between atoms: _1  and  _3
REMARK    2  A    between atoms: _3  and  _4
REMARK    3  A    between atoms: _3  and  _6
REMARK    4  A    between atoms: _6  and  _7
REMARK    5  A    between atoms: _10  and  _12
REMARK    6  A    between atoms: _12  and  _13
REMARK    7  A    between atoms: _12  and  _15
REMARK    8  A    between atoms: _15  and  _16
REMARK    9  A    between atoms: _16  and  _17
REMARK   10  A    between atoms: _17  and  _18
REMARK   11  A    between atoms: _27  and  _29
REMARK   12  A    between atoms: _29  and  _30
REMARK   13  A    between atoms: _29  and  _32
REMARK   14  A    between atoms: _32  and  _33
REMARK   15  A    between atoms: _38  and  _40
REMARK   16  A    between atoms: _40  and  _41
REMARK   17  A    between atoms: _40  and  _43
REMARK   18  A    between atoms: _43  and  _44
REMARK   19  A    between atoms: _47  and  _49
REMARK   20  A    between atoms: _49  and  _50
REMARK   21  A    between atoms: _49  and  _52
REMARK   22  A    between atoms: _52  and  _53
REMARK   23  A    between atoms: _53  and  _54
REMARK   24  A    between atoms: _59  and  _61
REMARK   25  A    between atoms: _61  and  _62
REMARK   26  A    between atoms: _61  and  _64
REMARK   27  A    between atoms: _67  and  _69
REMARK   28  A    between atoms: _69  and  _70
REMARK   29  A    between atoms: _69  and  _72
REMARK   30  A    between atoms: _72  and  _73
REMARK   31  A    between atoms: _76  and  _78
REMARK   32  A    between atoms: _78  and  _79
REMARK   33  A    between atoms: _78  and  _81
REMARK   34  A    between atoms: _81  and  _82
REMARK   35  A    between atoms: _85  and  _87
REMARK   36  A    between atoms: _87  and  _88
REMARK   37  A    between atoms: _87  and  _90
REMARK   38  A    between atoms: _90  and  _91
REMARK   39  A    between atoms: _91  and  _92
REMARK   40  A    between atoms: _92  and  _93
REMARK   41  A    between atoms: _102  and  _104
REMARK   42  A    between atoms: _104  and  _105
REMARK   43  A    between atoms: _104  and  _107
REMARK   44  A    between atoms: _107  and  _108
REMARK   45  A    between atoms: _114  and  _116
REMARK   46  A    between atoms: _116  and  _117
REMARK   47  A    between atoms: _120  and  _121
REMARK   48  A    between atoms: _126  and  _128
REMARK   49  A    between atoms: _128  and  _129
REMARK   50  A    between atoms: _128  and  _131
REMARK   51  A    between atoms: _131  and  _132
REMARK   52  A    between atoms: _132  and  _133
REMARK   53  A    between atoms: _133  and  _134
REMARK   54  A    between atoms: _134  and  _135
REMARK   55  A    between atoms: _139  and  _141
REMARK   56  A    between atoms: _141  and  _142
REMARK   57  A    between atoms: _141  and  _144
REMARK   58  A    between atoms: _144  and  _145
REMARK   59  A    between atoms: _145  and  _146
REMARK   60  A    between atoms: _146  and  _147
REMARK   61  A    between atoms: _156  and  _158
REMARK   62  A    between atoms: _158  and  _159
REMARK   63  A    between atoms: _158  and  _161
REMARK   64  A    between atoms: _161  and  _162
REMARK   65  A    between atoms: _165  and  _167
REMARK   66  A    between atoms: _167  and  _168
REMARK   67  A    between atoms: _167  and  _170
REMARK   68  A    between atoms: _170  and  _171
REMARK   69  A    between atoms: _171  and  _172
REMARK   70  A    between atoms: _175  and  _177
REMARK   71  A    between atoms: _177  and  _178
REMARK   72  A    between atoms: _177  and  _180
REMARK   73  A    between atoms: _180  and  _181
REMARK   74  A    between atoms: _181  and  _182
REMARK   75  A    between atoms: _187  and  _189
REMARK   76  A    between atoms: _189  and  _190
REMARK   77  A    between atoms: _189  and  _192
REMARK   78  A    between atoms: _192  and  _193
REMARK   79  A    between atoms: _199  and  _201
REMARK   80  A    between atoms: _201  and  _202
REMARK   81  A    between atoms: _201  and  _204
REMARK   82  A    between atoms: _204  and  _205
REMARK   83  A    between atoms: _209  and  _210
REMARK   84  A    between atoms: _215  and  _217
REMARK   85  A    between atoms: _217  and  _218
REMARK   86  A    between atoms: _217  and  _220
REMARK   87  A    between atoms: _220  and  _221
REMARK   88  A    between atoms: _223  and  _225
REMARK   89  A    between atoms: _225  and  _226
REMARK   90  A    between atoms: _225  and  _228
REMARK   91  A    between atoms: _228  and  _229
REMARK   92  A    between atoms: _229  and  _230
REMARK   93  A    between atoms: _230  and  _231
REMARK   94  A    between atoms: _240  and  _242
REMARK   95  A    between atoms: _242  and  _243
REMARK   96  A    between atoms: _242  and  _245
REMARK   97  A    between atoms: _245  and  _246
REMARK   98  A    between atoms: _246  and  _247
REMARK   99  A    between atoms: _247  and  _248
REMARK  100  A    between atoms: _257  and  _259
REMARK  101  A    between atoms: _259  and  _260
REMARK  102  A    between atoms: _259  and  _262
REMARK  103  A    between atoms: _262  and  _263
REMARK  104  A    between atoms: _266  and  _268
REMARK  105  A    between atoms: _268  and  _269
REMARK  106  A    between atoms: _268  and  _271
REMARK  107  A    between atoms: _271  and  _272
REMARK  108  A    between atoms: _277  and  _278
REMARK  109  A    between atoms: _280  and  _282
REMARK  110  A    between atoms: _282  and  _283
REMARK  111  A    between atoms: _282  and  _285
REMARK  112  A    between atoms: _285  and  _286
REMARK  113  A    between atoms: _291  and  _293
REMARK  114  A    between atoms: _293  and  _294
REMARK  115  A    between atoms: _293  and  _296
REMARK  116  A    between atoms: _296  and  _297
REMARK  117  A    between atoms: _300  and  _302
REMARK  118  A    between atoms: _302  and  _303
REMARK  119  A    between atoms: _302  and  _305
REMARK  120  A    between atoms: _307  and  _309
REMARK  121  A    between atoms: _309  and  _310
REMARK  122  A    between atoms: _309  and  _312
REMARK  123  A    between atoms: _312  and  _313
REMARK  124  A    between atoms: _313  and  _314
REMARK  125  A    between atoms: _319  and  _321
REMARK  126  A    between atoms: _321  and  _322
REMARK  127  A    between atoms: _321  and  _324
REMARK  128  A    between atoms: _324  and  _325
REMARK  129  A    between atoms: _325  and  _326
REMARK  130  A    between atoms: _329  and  _331
REMARK  131  A    between atoms: _331  and  _332
REMARK  132  A    between atoms: _334  and  _336
REMARK  133  A    between atoms: _336  and  _337
REMARK  134  A    between atoms: _336  and  _339
REMARK  135  A    between atoms: _339  and  _340
REMARK  136  A    between atoms: _345  and  _347
REMARK  137  A    between atoms: _347  and  _348
REMARK  138  A    between atoms: _347  and  _350
REMARK  139  A    between atoms: _350  and  _351
REMARK  140  A    between atoms: _354  and  _356
REMARK  141  A    between atoms: _356  and  _357
REMARK  142  A    between atoms: _356  and  _359
REMARK  143  A    between atoms: _359  and  _360
REMARK  144  A    between atoms: _363  and  _365
REMARK  145  A    between atoms: _365  and  _366
REMARK  146  A    between atoms: _365  and  _368
REMARK  147  A    between atoms: _368  and  _369
REMARK  148  A    between atoms: _369  and  _370
REMARK  149  A    between atoms: _372  and  _374
REMARK  150  A    between atoms: _374  and  _375
REMARK  151  A    between atoms: _374  and  _377
REMARK  152  A    between atoms: _377  and  _378
REMARK  153  A    between atoms: _381  and  _383
REMARK  154  A    between atoms: _383  and  _384
REMARK  155  A    between atoms: _383  and  _386
REMARK  156  A    between atoms: _386  and  _387
REMARK  157  A    between atoms: _390  and  _392
REMARK  158  A    between atoms: _392  and  _393
REMARK  159  A    between atoms: _392  and  _395
REMARK  160  A    between atoms: _395  and  _396
REMARK  161  A    between atoms: _396  and  _397
REMARK  162  A    between atoms: _400  and  _402
REMARK  163  A    between atoms: _402  and  _403
REMARK  164  A    between atoms: _402  and  _405
REMARK  165  A    between atoms: _405  and  _406
REMARK  166  A    between atoms: _411  and  _412
REMARK  167  A    between atoms: _414  and  _416
REMARK  168  A    between atoms: _416  and  _417
REMARK  169  A    between atoms: _416  and  _419
REMARK  170  A    between atoms: _419  and  _420
REMARK  171  A    between atoms: _426  and  _428
REMARK  172  A    between atoms: _428  and  _429
REMARK  173  A    between atoms: _428  and  _431
REMARK  174  A    between atoms: _431  and  _432
REMARK  175  A    between atoms: _437  and  _439
REMARK  176  A    between atoms: _439  and  _440
REMARK  177  A    between atoms: _439  and  _442
REMARK  178  A    between atoms: _442  and  _443
REMARK  179  A    between atoms: _443  and  _444
REMARK  180  A    between atoms: _447  and  _449
REMARK  181  A    between atoms: _449  and  _450
REMARK  182  A    between atoms: _449  and  _452
REMARK  183  A    between atoms: _452  and  _453
REMARK  184  A    between atoms: _458  and  _459
REMARK  185  A    between atoms: _461  and  _463
REMARK  186  A    between atoms: _463  and  _464
REMARK  187  A    between atoms: _463  and  _466
REMARK  188  A    between atoms: _466  and  _467
REMARK  189  A    between atoms: _470  and  _472
REMARK  190  A    between atoms: _472  and  _473
REMARK  191  A    between atoms: _472  and  _475
REMARK  192  A    between atoms: _475  and  _476
REMARK  193  A    between atoms: _481  and  _482
REMARK  194  A    between atoms: _484  and  _486
REMARK  195  A    between atoms: _486  and  _487
REMARK  196  A    between atoms: _486  and  _489
REMARK  197  A    between atoms: _489  and  _490
REMARK  198  A    between atoms: _493  and  _494
REMARK  199  A    between atoms: _499  and  _501
REMARK  200  A    between atoms: _501  and  _502
REMARK  201  A    between atoms: _501  and  _504
REMARK  202  A    between atoms: _504  and  _505
REMARK  203  A    between atoms: _511  and  _513
REMARK  204  A    between atoms: _513  and  _514
REMARK  205  A    between atoms: _513  and  _516
REMARK  206  A    between atoms: _516  and  _517
REMARK  207  A    between atoms: _523  and  _525
REMARK  208  A    between atoms: _525  and  _526
REMARK  209  A    between atoms: _525  and  _528
REMARK  210  A    between atoms: _528  and  _529
REMARK  211  A    between atoms: _531  and  _533
REMARK  212  A    between atoms: _533  and  _534
REMARK  213  A    between atoms: _533  and  _536
REMARK  214  A    between atoms: _536  and  _537
REMARK  215  A    between atoms: _540  and  _542
REMARK  216  A    between atoms: _542  and  _543
REMARK  217  A    between atoms: _542  and  _545
REMARK  218  A    between atoms: _545  and  _546
REMARK  219  A    between atoms: _556  and  _558
REMARK  220  A    between atoms: _558  and  _559
REMARK  221  A    between atoms: _561  and  _563
REMARK  222  A    between atoms: _563  and  _564
REMARK  223  A    between atoms: _563  and  _566
REMARK  224  A    between atoms: _566  and  _567
REMARK  225  A    between atoms: _577  and  _579
REMARK  226  A    between atoms: _579  and  _580
REMARK  227  A    between atoms: _579  and  _582
REMARK  228  A    between atoms: _582  and  _583
REMARK  229  A    between atoms: _585  and  _587
REMARK  230  A    between atoms: _587  and  _588
REMARK  231  A    between atoms: _587  and  _590
REMARK  232  A    between atoms: _590  and  _591
REMARK  233  A    between atoms: _591  and  _592
REMARK  234  A    between atoms: _597  and  _599
REMARK  235  A    between atoms: _599  and  _600
REMARK  236  A    between atoms: _599  and  _602
REMARK  237  A    between atoms: _602  and  _603
REMARK  238  A    between atoms: _605  and  _607
REMARK  239  A    between atoms: _607  and  _608
REMARK  240  A    between atoms: _607  and  _610
REMARK  241  A    between atoms: _610  and  _611
REMARK  242  A    between atoms: _614  and  _616
REMARK  243  A    between atoms: _616  and  _617
REMARK  244  A    between atoms: _616  and  _619
REMARK  245  A    between atoms: _619  and  _620
REMARK  246  A    between atoms: _620  and  _621
REMARK  247  A    between atoms: _624  and  _626
REMARK  248  A    between atoms: _626  and  _627
REMARK  249  A    between atoms: _626  and  _629
REMARK  250  A    between atoms: _629  and  _630
REMARK  251  A    between atoms: _636  and  _638
REMARK  252  A    between atoms: _638  and  _639
REMARK  253  A    between atoms: _641  and  _643
REMARK  254  A    between atoms: _643  and  _644
REMARK  255  A    between atoms: _643  and  _646
REMARK  256  A    between atoms: _646  and  _647
REMARK  257  A    between atoms: _652  and  _653
REMARK  258  A    between atoms: _655  and  _657
REMARK  259  A    between atoms: _657  and  _658
REMARK  260  A    between atoms: _657  and  _660
REMARK  261  A    between atoms: _660  and  _661
REMARK  262  A    between atoms: _666  and  _667
REMARK  263  A    between atoms: _669  and  _671
REMARK  264  A    between atoms: _671  and  _672
REMARK  265  A    between atoms: _671  and  _674
REMARK  266  A    between atoms: _674  and  _675
REMARK  267  A    between atoms: _675  and  _676
REMARK  268  A    between atoms: _676  and  _677
REMARK                            x       y       z     vdW  Elec       q    Type
REMARK                         _______ _______ _______ _____ _____    ______ ____
ROOT
ATOM      1  CB  GLN A   1     -21.463   7.150 -24.656  0.00  0.00    +0.035 C 
ENDROOT
BRANCH   1   2
ATOM      2  CA  GLN A   1     -20.103   6.608 -25.056  0.00  0.00    +0.134 C 
BRANCH   2   3
ATOM      3  N   GLN A   1     -19.120   7.649 -24.861  0.00  0.00    -0.239 NA
ATOM      4  H   GLN A   1     -19.388   8.632 -25.071  0.00  0.00    +0.142 HD
ENDBRANCH   2   3
BRANCH   2   5
ATOM      5  C   GLN A   1     -20.126   6.231 -26.541  0.00  0.00    +0.224 C 
ATOM      6  O   GLN A   1     -20.278   7.096 -27.417  0.00  0.00    -0.287 OA
ENDBRANCH   2   5
ENDBRANCH   1   2
BRANCH   1   7
ATOM      7  CG  GLN A   1     -22.611   6.162 -24.719  0.00  0.00    +0.087 C 
BRANCH   7   8
ATOM      8  CD  GLN A   1     -23.902   6.794 -24.221  0.00  0.00    +0.219 C 
ATOM      9  OE1 GLN A   1     -24.570   6.256 -23.330  0.00  0.00    -0.275 OA
ATOM     10  NE2 GLN A   1     -24.244   7.959 -24.771  0.00  0.00    -0.329 N 
ATOM     11 HE21 GLN A   1     -25.103   8.452 -24.453  0.00  0.00    +0.145 HD
ATOM     12 HE22 GLN A   1     -23.652   8.375 -25.518  0.00  0.00    +0.145 HD
ENDBRANCH   7   8
ENDBRANCH   1   7
TORSDOF 5
REMARK  Name = ../refined-set-2016/3zm9/3zm9_pocket.pdb
REMARK  268 active torsions:
REMARK  status: ('A' for Active; 'I' for Inactive)
REMARK    1  A    between atoms: _1  and  _3
REMARK    2  A    between atoms: _3  and  _4
REMARK    3  A    between atoms: _3  and  _6
REMARK    4  A    between atoms: _6  and  _7
REMARK    5  A    between atoms: _10  and  _12
REMARK    6  A    between atoms: _12  and  _13
REMARK    7  A    between atoms: _12  and  _15
REMARK    8  A    between atoms: _15  and  _16
REMARK    9  A    between atoms: _16  and  _17
REMARK   10  A    between atoms: _17  and  _18
REMARK   11  A    between atoms: _27  and  _29
REMARK   12  A    between atoms: _29  and  _30
REMARK   13  A    between atoms: _29  and  _32
REMARK   14  A    between atoms: _32  and  _33
REMARK   15  A    between atoms: _38  and  _40
REMARK   16  A    between atoms: _40  and  _41
REMARK   17  A    between atoms: _40  and  _43
REMARK   18  A    between atoms: _43  and  _44
REMARK   19  A    between atoms: _47  and  _49
REMARK   20  A    between atoms: _49  and  _50
REMARK   21  A    between atoms: _49  and  _52
REMARK   22  A    between atoms: _52  and  _53
REMARK   23  A    between atoms: _53  and  _54
REMARK   24  A    between atoms: _59  and  _61
REMARK   25  A    between atoms: _61  and  _62
REMARK   26  A    between atoms: _61  and  _64
REMARK   27  A    between atoms: _67  and  _69
REMARK   28  A    between atoms: _69  and  _70
REMARK   29  A    between atoms: _69  and  _72
REMARK   30  A    between atoms: _72  and  _73
REMARK   31  A    between atoms: _76  and  _78
REMARK   32  A    between atoms: _78  and  _79
REMARK   33  A    between atoms: _78  and  _81
REMARK   34  A    between atoms: _81  and  _82
REMARK   35  A    between atoms: _85  and  _87
REMARK   36  A    between atoms: _87  and  _88
REMARK   37  A    between atoms: _87  and  _90
REMARK   38  A    between atoms: _90  and  _91
REMARK   39  A    between atoms: _91  and  _92
REMARK   40  A    between atoms: _92  and  _93
REMARK   41  A    between atoms: _102  and  _104
REMARK   42  A    between atoms: _104  and  _105
REMARK   43  A    between atoms: _104  and  _107
REMARK   44  A    between atoms: _107  and  _108
REMARK   45  A    between atoms: _114  and  _116
REMARK   46  A    between atoms: _116  and  _117
REMARK   47  A    between atoms: _120  and  _121
REMARK   48  A    between atoms: _126  and  _128
REMARK   49  A    between atoms: _128  and  _129
REMARK   50  A    between atoms: _128  and  _131
REMARK   51  A    between atoms: _131  and  _132
REMARK   52  A    between atoms: _132  and  _133
REMARK   53  A    between atoms: _133  and  _134
REMARK   54  A    between atoms: _134  and  _135
REMARK   55  A    between atoms: _139  and  _141
REMARK   56  A    between atoms: _141  and  _142
REMARK   57  A    between atoms: _141  and  _144
REMARK   58  A    between atoms: _144  and  _145
REMARK   59  A    between atoms: _145  and  _146
REMARK   60  A    between atoms: _146  and  _147
REMARK   61  A    between atoms: _156  and  _158
REMARK   62  A    between atoms: _158  and  _159
REMARK   63  A    between atoms: _158  and  _161
REMARK   64  A    between atoms: _161  and  _162
REMARK   65  A    between atoms: _165  and  _167
REMARK   66  A    between atoms: _167  and  _168
REMARK   67  A    between atoms: _167  and  _170
REMARK   68  A    between atoms: _170  and  _171
REMARK   69  A    between atoms: _171  and  _172
REMARK   70  A    between atoms: _175  and  _177
REMARK   71  A    between atoms: _177  and  _178
REMARK   72  A    between atoms: _177  and  _180
REMARK   73  A    between atoms: _180  and  _181
REMARK   74  A    between atoms: _181  and  _182
REMARK   75  A    between atoms: _187  and  _189
REMARK   76  A    between atoms: _189  and  _190
REMARK   77  A    between atoms: _189  and  _192
REMARK   78  A    between atoms: _192  and  _193
REMARK   79  A    between atoms: _199  and  _201
REMARK   80  A    between atoms: _201  and  _202
REMARK   81  A    between atoms: _201  and  _204
REMARK   82  A    between atoms: _204  and  _205
REMARK   83  A    between atoms: _209  and  _210
REMARK   84  A    between atoms: _215  and  _217
REMARK   85  A    between atoms: _217  and  _218
REMARK   86  A    between atoms: _217  and  _220
REMARK   87  A    between atoms: _220  and  _221
REMARK   88  A    between atoms: _223  and  _225
REMARK   89  A    between atoms: _225  and  _226
REMARK   90  A    between atoms: _225  and  _228
REMARK   91  A    between atoms: _228  and  _229
REMARK   92  A    between atoms: _229  and  _230
REMARK   93  A    between atoms: _230  and  _231
REMARK   94  A    between atoms: _240  and  _242
REMARK   95  A    between atoms: _242  and  _243
REMARK   96  A    between atoms: _242  and  _245
REMARK   97  A    between atoms: _245  and  _246
REMARK   98  A    between atoms: _246  and  _247
REMARK   99  A    between atoms: _247  and  _248
REMARK  100  A    between atoms: _257  and  _259
REMARK  101  A    between atoms: _259  and  _260
REMARK  102  A    between atoms: _259  and  _262
REMARK  103  A    between atoms: _262  and  _263
REMARK  104  A    between atoms: _266  and  _268
REMARK  105  A    between atoms: _268  and  _269
REMARK  106  A    between atoms: _268  and  _271
REMARK  107  A    between atoms: _271  and  _272
REMARK  108  A    between atoms: _277  and  _278
REMARK  109  A    between atoms: _280  and  _282
REMARK  110  A    between atoms: _282  and  _283
REMARK  111  A    between atoms: _282  and  _285
REMARK  112  A    between atoms: _285  and  _286
REMARK  113  A    between atoms: _291  and  _293
REMARK  114  A    between atoms: _293  and  _294
REMARK  115  A    between atoms: _293  and  _296
REMARK  116  A    between atoms: _296  and  _297
REMARK  117  A    between atoms: _300  and  _302
REMARK  118  A    between atoms: _302  and  _303
REMARK  119  A    between atoms: _302  and  _305
REMARK  120  A    between atoms: _307  and  _309
REMARK  121  A    between atoms: _309  and  _310
REMARK  122  A    between atoms: _309  and  _312
REMARK  123  A    between atoms: _312  and  _313
REMARK  124  A    between atoms: _313  and  _314
REMARK  125  A    between atoms: _319  and  _321
REMARK  126  A    between atoms: _321  and  _322
REMARK  127  A    between atoms: _321  and  _324
REMARK  128  A    between atoms: _324  and  _325
REMARK  129  A    between atoms: _325  and  _326
REMARK  130  A    between atoms: _329  and  _331
REMARK  131  A    between atoms: _331  and  _332
REMARK  132  A    between atoms: _334  and  _336
REMARK  133  A    between atoms: _336  and  _337
REMARK  134  A    between atoms: _336  and  _339
REMARK  135  A    between atoms: _339  and  _340
REMARK  136  A    between atoms: _345  and  _347
REMARK  137  A    between atoms: _347  and  _348
REMARK  138  A    between atoms: _347  and  _350
REMARK  139  A    between atoms: _350  and  _351
REMARK  140  A    between atoms: _354  and  _356
REMARK  141  A    between atoms: _356  and  _357
REMARK  142  A    between atoms: _356  and  _359
REMARK  143  A    between atoms: _359  and  _360
REMARK  144  A    between atoms: _363  and  _365
REMARK  145  A    between atoms: _365  and  _366
REMARK  146  A    between atoms: _365  and  _368
REMARK  147  A    between atoms: _368  and  _369
REMARK  148  A    between atoms: _369  and  _370
REMARK  149  A    between atoms: _372  and  _374
REMARK  150  A    between atoms: _374  and  _375
REMARK  151  A    between atoms: _374  and  _377
REMARK  152  A    between atoms: _377  and  _378
REMARK  153  A    between atoms: _381  and  _383
REMARK  154  A    between atoms: _383  and  _384
REMARK  155  A    between atoms: _383  and  _386
REMARK  156  A    between atoms: _386  and  _387
REMARK  157  A    between atoms: _390  and  _392
REMARK  158  A    between atoms: _392  and  _393
REMARK  159  A    between atoms: _392  and  _395
REMARK  160  A    between atoms: _395  and  _396
REMARK  161  A    between atoms: _396  and  _397
REMARK  162  A    between atoms: _400  and  _402
REMARK  163  A    between atoms: _402  and  _403
REMARK  164  A    between atoms: _402  and  _405
REMARK  165  A    between atoms: _405  and  _406
REMARK  166  A    between atoms: _411  and  _412
REMARK  167  A    between atoms: _414  and  _416
REMARK  168  A    between atoms: _416  and  _417
REMARK  169  A    between atoms: _416  and  _419
REMARK  170  A    between atoms: _419  and  _420
REMARK  171  A    between atoms: _426  and  _428
REMARK  172  A    between atoms: _428  and  _429
REMARK  173  A    between atoms: _428  and  _431
REMARK  174  A    between atoms: _431  and  _432
REMARK  175  A    between atoms: _437  and  _439
REMARK  176  A    between atoms: _439  and  _440
REMARK  177  A    between atoms: _439  and  _442
REMARK  178  A    between atoms: _442  and  _443
REMARK  179  A    between atoms: _443  and  _444
REMARK  180  A    between atoms: _447  and  _449
REMARK  181  A    between atoms: _449  and  _450
REMARK  182  A    between atoms: _449  and  _452
REMARK  183  A    between atoms: _452  and  _453
REMARK  184  A    between atoms: _458  and  _459
REMARK  185  A    between atoms: _461  and  _463
REMARK  186  A    between atoms: _463  and  _464
REMARK  187  A    between atoms: _463  and  _466
REMARK  188  A    between atoms: _466  and  _467
REMARK  189  A    between atoms: _470  and  _472
REMARK  190  A    between atoms: _472  and  _473
REMARK  191  A    between atoms: _472  and  _475
REMARK  192  A    between atoms: _475  and  _476
REMARK  193  A    between atoms: _481  and  _482
REMARK  194  A    between atoms: _484  and  _486
REMARK  195  A    between atoms: _486  and  _487
REMARK  196  A    between atoms: _486  and  _489
REMARK  197  A    between atoms: _489  and  _490
REMARK  198  A    between atoms: _493  and  _494
REMARK  199  A    between atoms: _499  and  _501
REMARK  200  A    between atoms: _501  and  _502
REMARK  201  A    between atoms: _501  and  _504
REMARK  202  A    between atoms: _504  and  _505
REMARK  203  A    between atoms: _511  and  _513
REMARK  204  A    between atoms: _513  and  _514
REMARK  205  A    between atoms: _513  and  _516
REMARK  206  A    between atoms: _516  and  _517
REMARK  207  A    between atoms: _523  and  _525
REMARK  208  A    between atoms: _525  and  _526
REMARK  209  A    between atoms: _525  and  _528
REMARK  210  A    between atoms: _528  and  _529
REMARK  211  A    between atoms: _531  and  _533
REMARK  212  A    between atoms: _533  and  _534
REMARK  213  A    between atoms: _533  and  _536
REMARK  214  A    between atoms: _536  and  _537
REMARK  215  A    between atoms: _540  and  _542
REMARK  216  A    between atoms: _542  and  _543
REMARK  217  A    between atoms: _542  and  _545
REMARK  218  A    between atoms: _545  and  _546
REMARK  219  A    between atoms: _556  and  _558
REMARK  220  A    between atoms: _558  and  _559
REMARK  221  A    between atoms: _561  and  _563
REMARK  222  A    between atoms: _563  and  _564
REMARK  223  A    between atoms: _563  and  _566
REMARK  224  A    between atoms: _566  and  _567
REMARK  225  A    between atoms: _577  and  _579
REMARK  226  A    between atoms: _579  and  _580
REMARK  227  A    between atoms: _579  and  _582
REMARK  228  A    between atoms: _582  and  _583
REMARK  229  A    between atoms: _585  and  _587
REMARK  230  A    between atoms: _587  and  _588
REMARK  231  A    between atoms: _587  and  _590
REMARK  232  A    between atoms: _590  and  _591
REMARK  233  A    between atoms: _591  and  _592
REMARK  234  A    between atoms: _597  and  _599
REMARK  235  A    between atoms: _599  and  _600
REMARK  236  A    between atoms: _599  and  _602
REMARK  237  A    between atoms: _602  and  _603
REMARK  238  A    between atoms: _605  and  _607
REMARK  239  A    between atoms: _607  and  _608
REMARK  240  A    between atoms: _607  and  _610
REMARK  241  A    between atoms: _610  and  _611
REMARK  242  A    between atoms: _614  and  _616
REMARK  243  A    between atoms: _616  and  _617
REMARK  244  A    between atoms: _616  and  _619
REMARK  245  A    between atoms: _619  and  _620
REMARK  246  A    between atoms: _620  and  _621
REMARK  247  A    between atoms: _624  and  _626
REMARK  248  A    between atoms: _626  and  _627
REMARK  249  A    between atoms: _626  and  _629
REMARK  250  A    between atoms: _629  and  _630
REMARK  251  A    between atoms: _636  and  _638
REMARK  252  A    between atoms: _638  and  _639
REMARK  253  A    between atoms: _641  and  _643
REMARK  254  A    between atoms: _643  and  _644
REMARK  255  A    between atoms: _643  and  _646
REMARK  256  A    between atoms: _646  and  _647
REMARK  257  A    between atoms: _652  and  _653
REMARK  258  A    between atoms: _655  and  _657
REMARK  259  A    between atoms: _657  and  _658
REMARK  260  A    between atoms: _657  and  _660
REMARK  261  A    between atoms: _660  and  _661
REMARK  262  A    between atoms: _666  and  _667
REMARK  263  A    between atoms: _669  and  _671
REMARK  264  A    between atoms: _671  and  _672
REMARK  265  A    between atoms: _671  and  _674
REMARK  266  A    between atoms: _674  and  _675
REMARK  267  A    between atoms: _675  and  _676
REMARK  268  A    between atoms: _676  and  _677
REMARK                            x       y       z     vdW  Elec       q    Type
REMARK                         _______ _______ _______ _____ _____    ______ ____
ROOT
ATOM      1  CA  LEU A   3     -14.516   4.084 -24.110  0.00  0.00    +0.149 C 
ENDROOT
BRANCH   1   4
ATOM      2  C   LEU A   2     -16.401   3.045 -23.011  0.00  0.00    +0.241 C 
ATOM      3  O   LEU A   2     -15.746   2.022 -22.729  0.00  0.00    -0.273 OA
ATOM      4  N   LEU A   3     -15.910   4.041 -23.729  0.00  0.00    -0.297 N 
ATOM      5  H   LEU A   3     -16.542   4.812 -24.027  0.00  0.00    +0.150 HD
BRANCH   2   6
ATOM      6  CA  LEU A   2     -17.833   3.218 -22.540  0.00  0.00    +0.149 C 
BRANCH   6   8
ATOM      7  C   VAL A   1     -19.439   2.110 -23.967  0.00  0.00    +0.238 C 
ATOM      8  N   LEU A   2     -18.625   2.071 -22.931  0.00  0.00    -0.297 N 
ATOM      9  H   LEU A   2     -18.550   1.192 -22.380  0.00  0.00    +0.150 HD
ATOM     10  O   VAL A   1     -19.693   3.139 -24.599  0.00  0.00    -0.274 OA
BRANCH   7  11
ATOM     11  CA  VAL A   1     -20.053   0.783 -24.361  0.00  0.00    +0.145 C 
BRANCH  11  12
ATOM     12  CB  VAL A   1     -18.959  -0.057 -25.077  0.00  0.00    +0.025 C 
ATOM     13  CG2 VAL A   1     -19.444  -1.486 -25.310  0.00  0.00    +0.002 C 
ATOM     14  CG1 VAL A   1     -18.547   0.588 -26.398  0.00  0.00    +0.002 C 
ENDBRANCH  11  12
BRANCH  11  15
ATOM     15  N   VAL A   1     -21.221   1.015 -25.208  0.00  0.00    -0.238 NA
ATOM     16  H   VAL A   1     -21.164   1.738 -25.953  0.00  0.00    +0.142 HD
ENDBRANCH  11  15
ENDBRANCH   7  11
ENDBRANCH   6   8
BRANCH   6  17
ATOM     17  CB  LEU A   2     -17.847   3.379 -21.016  0.00  0.00    +0.029 C 
BRANCH  17  18
ATOM     18  CG  LEU A   2     -17.060   4.610 -20.544  0.00  0.00    +0.002 C 
ATOM     19  CD2 LEU A   2     -16.038   4.249 -19.476  0.00  0.00    +0.000 C 
ATOM     20  CD1 LEU A   2     -18.031   5.645 -20.006  0.00  0.00    +0.000 C 
ENDBRANCH  17  18
ENDBRANCH   6  17
ENDBRANCH   2   6
ENDBRANCH   1   4
BRANCH   1  21
ATOM     21  C   LEU A   3     -13.818   5.032 -23.155  0.00  0.00    +0.241 C 
ATOM     22  N   ARG A   4     -12.795   4.518 -22.468  0.00  0.00    -0.298 N 
ATOM     23  H   ARG A   4     -12.605   3.500 -22.568  0.00  0.00    +0.150 HD
ATOM     24  O   LEU A   3     -14.239   6.192 -23.033  0.00  0.00    -0.273 OA
BRANCH  22  25
ATOM     25  CA  ARG A   4     -11.922   5.295 -21.582  0.00  0.00    +0.137 C 
BRANCH  25  26
ATOM     26  C   ARG A   4     -10.548   5.445 -22.234  0.00  0.00    +0.227 C 
ATOM     27  O   ARG A   4      -9.892   4.439 -22.539  0.00  0.00    -0.286 OA
ENDBRANCH  25  26
BRANCH  25  28
ATOM     28  CB  ARG A   4     -11.775   4.604 -20.219  0.00  0.00    +0.031 C 
BRANCH  28  29
ATOM     29  CG  ARG A   4     -10.835   5.336 -19.255  0.00  0.00    +0.045 C 
BRANCH  29  30
ATOM     30  CD  ARG A   4     -10.767   4.640 -17.901  0.00  0.00    +0.174 C 
BRANCH  30  31
ATOM     31  NE  ARG A   4     -12.101   4.255 -17.428  0.00  0.00    -0.265 N 
ATOM     32  CZ  ARG A   4     -12.819   4.959 -16.555  0.00  0.00    +0.342 C 
ATOM     33  NH2 ARG A   4     -12.312   6.069 -16.029  0.00  0.00    -0.292 N 
ATOM     34 HH21 ARG A   4     -12.869   6.622 -15.347  0.00  0.00    +0.255 HD
ATOM     35 HH22 ARG A   4     -11.359   6.384 -16.300  0.00  0.00    +0.255 HD
ATOM     36  NH1 ARG A   4     -14.029   4.542 -16.186  0.00  0.00    -0.292 N 
ATOM     37 HH11 ARG A   4     -14.584   5.097 -15.504  0.00  0.00    +0.255 HD
ATOM     38 HH12 ARG A   4     -14.418   3.662 -16.580  0.00  0.00    +0.255 HD
ATOM     39  HE  ARG A   4     -12.513   3.375 -17.799  0.00  0.00    +0.259 HD
ENDBRANCH  30  31
ENDBRANCH  29  30
ENDBRANCH  28  29
ENDBRANCH  25  28
ENDBRANCH  22  25
ENDBRANCH   1  21
BRANCH   1  40
ATOM     40  CB  LEU A   3     -14.383   4.586 -25.548  0.00  0.00    +0.029 C 
BRANCH  40  41
ATOM     41  CG  LEU A   3     -12.963   4.935 -26.009  0.00  0.00    +0.002 C 
ATOM     42  CD2 LEU A   3     -12.039   3.711 -25.993  0.00  0.00    +0.000 C 
ATOM     43  CD1 LEU A   3     -13.013   5.536 -27.411  0.00  0.00    +0.000 C 
ENDBRANCH  40  41
ENDBRANCH   1  40
TORSDOF 17
REMARK  Name = ../refined-set-2016/3zm9/3zm9_pocket.pdb
REMARK  268 active torsions:
REMARK  status: ('A' for Active; 'I' for Inactive)
REMARK    1  A    between atoms: _1  and  _3
REMARK    2  A    between atoms: _3  and  _4
REMARK    3  A    between atoms: _3  and  _6
REMARK    4  A    between atoms: _6  and  _7
REMARK    5  A    between atoms: _10  and  _12
REMARK    6  A    between atoms: _12  and  _13
REMARK    7  A    between atoms: _12  and  _15
REMARK    8  A    between atoms: _15  and  _16
REMARK    9  A    between atoms: _16  and  _17
REMARK   10  A    between atoms: _17  and  _18
REMARK   11  A    between atoms: _27  and  _29
REMARK   12  A    between atoms: _29  and  _30
REMARK   13  A    between atoms: _29  and  _32
REMARK   14  A    between atoms: _32  and  _33
REMARK   15  A    between atoms: _38  and  _40
REMARK   16  A    between atoms: _40  and  _41
REMARK   17  A    between atoms: _40  and  _43
REMARK   18  A    between atoms: _43  and  _44
REMARK   19  A    between atoms: _47  and  _49
REMARK   20  A    between atoms: _49  and  _50
REMARK   21  A    between atoms: _49  and  _52
REMARK   22  A    between atoms: _52  and  _53
REMARK   23  A    between atoms: _53  and  _54
REMARK   24  A    between atoms: _59  and  _61
REMARK   25  A    between atoms: _61  and  _62
REMARK   26  A    between atoms: _61  and  _64
REMARK   27  A    between atoms: _67  and  _69
REMARK   28  A    between atoms: _69  and  _70
REMARK   29  A    between atoms: _69  and  _72
REMARK   30  A    between atoms: _72  and  _73
REMARK   31  A    between atoms: _76  and  _78
REMARK   32  A    between atoms: _78  and  _79
REMARK   33  A    between atoms: _78  and  _81
REMARK   34  A    between atoms: _81  and  _82
REMARK   35  A    between atoms: _85  and  _87
REMARK   36  A    between atoms: _87  and  _88
REMARK   37  A    between atoms: _87  and  _90
REMARK   38  A    between atoms: _90  and  _91
REMARK   39  A    between atoms: _91  and  _92
REMARK   40  A    between atoms: _92  and  _93
REMARK   41  A    between atoms: _102  and  _104
REMARK   42  A    between atoms: _104  and  _105
REMARK   43  A    between atoms: _104  and  _107
REMARK   44  A    between atoms: _107  and  _108
REMARK   45  A    between atoms: _114  and  _116
REMARK   46  A    between atoms: _116  and  _117
REMARK   47  A    between atoms: _120  and  _121
REMARK   48  A    between atoms: _126  and  _128
REMARK   49  A    between atoms: _128  and  _129
REMARK   50  A    between atoms: _128  and  _131
REMARK   51  A    between atoms: _131  and  _132
REMARK   52  A    between atoms: _132  and  _133
REMARK   53  A    between atoms: _133  and  _134
REMARK   54  A    between atoms: _134  and  _135
REMARK   55  A    between atoms: _139  and  _141
REMARK   56  A    between atoms: _141  and  _142
REMARK   57  A    between atoms: _141  and  _144
REMARK   58  A    between atoms: _144  and  _145
REMARK   59  A    between atoms: _145  and  _146
REMARK   60  A    between atoms: _146  and  _147
REMARK   61  A    between atoms: _156  and  _158
REMARK   62  A    between atoms: _158  and  _159
REMARK   63  A    between atoms: _158  and  _161
REMARK   64  A    between atoms: _161  and  _162
REMARK   65  A    between atoms: _165  and  _167
REMARK   66  A    between atoms: _167  and  _168
REMARK   67  A    between atoms: _167  and  _170
REMARK   68  A    between atoms: _170  and  _171
REMARK   69  A    between atoms: _171  and  _172
REMARK   70  A    between atoms: _175  and  _177
REMARK   71  A    between atoms: _177  and  _178
REMARK   72  A    between atoms: _177  and  _180
REMARK   73  A    between atoms: _180  and  _181
REMARK   74  A    between atoms: _181  and  _182
REMARK   75  A    between atoms: _187  and  _189
REMARK   76  A    between atoms: _189  and  _190
REMARK   77  A    between atoms: _189  and  _192
REMARK   78  A    between atoms: _192  and  _193
REMARK   79  A    between atoms: _199  and  _201
REMARK   80  A    between atoms: _201  and  _202
REMARK   81  A    between atoms: _201  and  _204
REMARK   82  A    between atoms: _204  and  _205
REMARK   83  A    between atoms: _209  and  _210
REMARK   84  A    between atoms: _215  and  _217
REMARK   85  A    between atoms: _217  and  _218
REMARK   86  A    between atoms: _217  and  _220
REMARK   87  A    between atoms: _220  and  _221
REMARK   88  A    between atoms: _223  and  _225
REMARK   89  A    between atoms: _225  and  _226
REMARK   90  A    between atoms: _225  and  _228
REMARK   91  A    between atoms: _228  and  _229
REMARK   92  A    between atoms: _229  and  _230
REMARK   93  A    between atoms: _230  and  _231
REMARK   94  A    between atoms: _240  and  _242
REMARK   95  A    between atoms: _242  and  _243
REMARK   96  A    between atoms: _242  and  _245
REMARK   97  A    between atoms: _245  and  _246
REMARK   98  A    between atoms: _246  and  _247
REMARK   99  A    between atoms: _247  and  _248
REMARK  100  A    between atoms: _257  and  _259
REMARK  101  A    between atoms: _259  and  _260
REMARK  102  A    between atoms: _259  and  _262
REMARK  103  A    between atoms: _262  and  _263
REMARK  104  A    between atoms: _266  and  _268
REMARK  105  A    between atoms: _268  and  _269
REMARK  106  A    between atoms: _268  and  _271
REMARK  107  A    between atoms: _271  and  _272
REMARK  108  A    between atoms: _277  and  _278
REMARK  109  A    between atoms: _280  and  _282
REMARK  110  A    between atoms: _282  and  _283
REMARK  111  A    between atoms: _282  and  _285
REMARK  112  A    between atoms: _285  and  _286
REMARK  113  A    between atoms: _291  and  _293
REMARK  114  A    between atoms: _293  and  _294
REMARK  115  A    between atoms: _293  and  _296
REMARK  116  A    between atoms: _296  and  _297
REMARK  117  A    between atoms: _300  and  _302
REMARK  118  A    between atoms: _302  and  _303
REMARK  119  A    between atoms: _302  and  _305
REMARK  120  A    between atoms: _307  and  _309
REMARK  121  A    between atoms: _309  and  _310
REMARK  122  A    between atoms: _309  and  _312
REMARK  123  A    between atoms: _312  and  _313
REMARK  124  A    between atoms: _313  and  _314
REMARK  125  A    between atoms: _319  and  _321
REMARK  126  A    between atoms: _321  and  _322
REMARK  127  A    between atoms: _321  and  _324
REMARK  128  A    between atoms: _324  and  _325
REMARK  129  A    between atoms: _325  and  _326
REMARK  130  A    between atoms: _329  and  _331
REMARK  131  A    between atoms: _331  and  _332
REMARK  132  A    between atoms: _334  and  _336
REMARK  133  A    between atoms: _336  and  _337
REMARK  134  A    between atoms: _336  and  _339
REMARK  135  A    between atoms: _339  and  _340
REMARK  136  A    between atoms: _345  and  _347
REMARK  137  A    between atoms: _347  and  _348
REMARK  138  A    between atoms: _347  and  _350
REMARK  139  A    between atoms: _350  and  _351
REMARK  140  A    between atoms: _354  and  _356
REMARK  141  A    between atoms: _356  and  _357
REMARK  142  A    between atoms: _356  and  _359
REMARK  143  A    between atoms: _359  and  _360
REMARK  144  A    between atoms: _363  and  _365
REMARK  145  A    between atoms: _365  and  _366
REMARK  146  A    between atoms: _365  and  _368
REMARK  147  A    between atoms: _368  and  _369
REMARK  148  A    between atoms: _369  and  _370
REMARK  149  A    between atoms: _372  and  _374
REMARK  150  A    between atoms: _374  and  _375
REMARK  151  A    between atoms: _374  and  _377
REMARK  152  A    between atoms: _377  and  _378
REMARK  153  A    between atoms: _381  and  _383
REMARK  154  A    between atoms: _383  and  _384
REMARK  155  A    between atoms: _383  and  _386
REMARK  156  A    between atoms: _386  and  _387
REMARK  157  A    between atoms: _390  and  _392
REMARK  158  A    between atoms: _392  and  _393
REMARK  159  A    between atoms: _392  and  _395
REMARK  160  A    between atoms: _395  and  _396
REMARK  161  A    between atoms: _396  and  _397
REMARK  162  A    between atoms: _400  and  _402
REMARK  163  A    between atoms: _402  and  _403
REMARK  164  A    between atoms: _402  and  _405
REMARK  165  A    between atoms: _405  and  _406
REMARK  166  A    between atoms: _411  and  _412
REMARK  167  A    between atoms: _414  and  _416
REMARK  168  A    between atoms: _416  and  _417
REMARK  169  A    between atoms: _416  and  _419
REMARK  170  A    between atoms: _419  and  _420
REMARK  171  A    between atoms: _426  and  _428
REMARK  172  A    between atoms: _428  and  _429
REMARK  173  A    between atoms: _428  and  _431
REMARK  174  A    between atoms: _431  and  _432
REMARK  175  A    between atoms: _437  and  _439
REMARK  176  A    between atoms: _439  and  _440
REMARK  177  A    between atoms: _439  and  _442
REMARK  178  A    between atoms: _442  and  _443
REMARK  179  A    between atoms: _443  and  _444
REMARK  180  A    between atoms: _447  and  _449
REMARK  181  A    between atoms: _449  and  _450
REMARK  182  A    between atoms: _449  and  _452
REMARK  183  A    between atoms: _452  and  _453
REMARK  184  A    between atoms: _458  and  _459
REMARK  185  A    between atoms: _461  and  _463
REMARK  186  A    between atoms: _463  and  _464
REMARK  187  A    between atoms: _463  and  _466
REMARK  188  A    between atoms: _466  and  _467
REMARK  189  A    between atoms: _470  and  _472
REMARK  190  A    between atoms: _472  and  _473
REMARK  191  A    between atoms: _472  and  _475
REMARK  192  A    between atoms: _475  and  _476
REMARK  193  A    between atoms: _481  and  _482
REMARK  194  A    between atoms: _484  and  _486
REMARK  195  A    between atoms: _486  and  _487
REMARK  196  A    between atoms: _486  and  _489
REMARK  197  A    between atoms: _489  and  _490
REMARK  198  A    between atoms: _493  and  _494
REMARK  199  A    between atoms: _499  and  _501
REMARK  200  A    between atoms: _501  and  _502
REMARK  201  A    between atoms: _501  and  _504
REMARK  202  A    between atoms: _504  and  _505
REMARK  203  A    between atoms: _511  and  _513
REMARK  204  A    between atoms: _513  and  _514
REMARK  205  A    between atoms: _513  and  _516
REMARK  206  A    between atoms: _516  and  _517
REMARK  207  A    between atoms: _523  and  _525
REMARK  208  A    between atoms: _525  and  _526
REMARK  209  A    between atoms: _525  and  _528
REMARK  210  A    between atoms: _528  and  _529
REMARK  211  A    between atoms: _531  and  _533
REMARK  212  A    between atoms: _533  and  _534
REMARK  213  A    between atoms: _533  and  _536
REMARK  214  A    between atoms: _536  and  _537
REMARK  215  A    between atoms: _540  and  _542
REMARK  216  A    between atoms: _542  and  _543
REMARK  217  A    between atoms: _542  and  _545
REMARK  218  A    between atoms: _545  and  _546
REMARK  219  A    between atoms: _556  and  _558
REMARK  220  A    between atoms: _558  and  _559
REMARK  221  A    between atoms: _561  and  _563
REMARK  222  A    between atoms: _563  and  _564
REMARK  223  A    between atoms: _563  and  _566
REMARK  224  A    between atoms: _566  and  _567
REMARK  225  A    between atoms: _577  and  _579
REMARK  226  A    between atoms: _579  and  _580
REMARK  227  A    between atoms: _579  and  _582
REMARK  228  A    between atoms: _582  and  _583
REMARK  229  A    between atoms: _585  and  _587
REMARK  230  A    between atoms: _587  and  _588
REMARK  231  A    between atoms: _587  and  _590
REMARK  232  A    between atoms: _590  and  _591
REMARK  233  A    between atoms: _591  and  _592
REMARK  234  A    between atoms: _597  and  _599
REMARK  235  A    between atoms: _599  and  _600
REMARK  236  A    between atoms: _599  and  _602
REMARK  237  A    between atoms: _602  and  _603
REMARK  238  A    between atoms: _605  and  _607
REMARK  239  A    between atoms: _607  and  _608
REMARK  240  A    between atoms: _607  and  _610
REMARK  241  A    between atoms: _610  and  _611
REMARK  242  A    between atoms: _614  and  _616
REMARK  243  A    between atoms: _616  and  _617
REMARK  244  A    between atoms: _616  and  _619
REMARK  245  A    between atoms: _619  and  _620
REMARK  246  A    between atoms: _620  and  _621
REMARK  247  A    between atoms: _624  and  _626
REMARK  248  A    between atoms: _626  and  _627
REMARK  249  A    between atoms: _626  and  _629
REMARK  250  A    between atoms: _629  and  _630
REMARK  251  A    between atoms: _636  and  _638
REMARK  252  A    between atoms: _638  and  _639
REMARK  253  A    between atoms: _641  and  _643
REMARK  254  A    between atoms: _643  and  _644
REMARK  255  A    between atoms: _643  and  _646
REMARK  256  A    between atoms: _646  and  _647
REMARK  257  A    between atoms: _652  and  _653
REMARK  258  A    between atoms: _655  and  _657
REMARK  259  A    between atoms: _657  and  _658
REMARK  260  A    between atoms: _657  and  _660
REMARK  261  A    between atoms: _660  and  _661
REMARK  262  A    between atoms: _666  and  _667
REMARK  263  A    between atoms: _669  and  _671
REMARK  264  A    between atoms: _671  and  _672
REMARK  265  A    between atoms: _671  and  _674
REMARK  266  A    between atoms: _674  and  _675
REMARK  267  A    between atoms: _675  and  _676
REMARK  268  A    between atoms: _676  and  _677
REMARK                            x       y       z     vdW  Elec       q    Type
REMARK                         _______ _______ _______ _____ _____    ______ ____
ROOT
ATOM      1  CB  PHE A   1     -10.132  -3.087 -14.385  0.00  0.00    +0.051 C 
ENDROOT
BRANCH   1   2
ATOM      2  CG  PHE A   1     -11.440  -2.576 -14.946  0.00  0.00    -0.020 A 
ATOM      3  CD2 PHE A   1     -12.094  -1.483 -14.362  0.00  0.00    -0.004 A 
ATOM      4  CE2 PHE A   1     -13.300  -1.006 -14.898  0.00  0.00    -0.000 A 
ATOM      5  CZ  PHE A   1     -13.856  -1.613 -16.019  0.00  0.00    -0.000 A 
ATOM      6  CE1 PHE A   1     -13.224  -2.702 -16.607  0.00  0.00    -0.000 A 
ATOM      7  CD1 PHE A   1     -12.015  -3.173 -16.078  0.00  0.00    -0.004 A 
ENDBRANCH   1   2
BRANCH   1   8
ATOM      8  CA  PHE A   1     -10.294  -4.180 -13.299  0.00  0.00    +0.137 C 
BRANCH   8   9
ATOM      9  N   PHE A   1      -9.030  -4.420 -12.591  0.00  0.00    -0.239 NA
ATOM     10  H   PHE A   1      -8.169  -3.932 -12.910  0.00  0.00    +0.142 HD
ENDBRANCH   8   9
BRANCH   8  11
ATOM     11  C   PHE A   1     -10.869  -5.478 -13.885  0.00  0.00    +0.224 C 
ATOM     12  O   PHE A   1     -12.067  -5.745 -13.751  0.00  0.00    -0.287 OA
ENDBRANCH   8  11
ENDBRANCH   1   8
TORSDOF 4
REMARK  Name = ../refined-set-2016/3zm9/3zm9_pocket.pdb
REMARK  268 active torsions:
REMARK  status: ('A' for Active; 'I' for Inactive)
REMARK    1  A    between atoms: _1  and  _3
REMARK    2  A    between atoms: _3  and  _4
REMARK    3  A    between atoms: _3  and  _6
REMARK    4  A    between atoms: _6  and  _7
REMARK    5  A    between atoms: _10  and  _12
REMARK    6  A    between atoms: _12  and  _13
REMARK    7  A    between atoms: _12  and  _15
REMARK    8  A    between atoms: _15  and  _16
REMARK    9  A    between atoms: _16  and  _17
REMARK   10  A    between atoms: _17  and  _18
REMARK   11  A    between atoms: _27  and  _29
REMARK   12  A    between atoms: _29  and  _30
REMARK   13  A    between atoms: _29  and  _32
REMARK   14  A    between atoms: _32  and  _33
REMARK   15  A    between atoms: _38  and  _40
REMARK   16  A    between atoms: _40  and  _41
REMARK   17  A    between atoms: _40  and  _43
REMARK   18  A    between atoms: _43  and  _44
REMARK   19  A    between atoms: _47  and  _49
REMARK   20  A    between atoms: _49  and  _50
REMARK   21  A    between atoms: _49  and  _52
REMARK   22  A    between atoms: _52  and  _53
REMARK   23  A    between atoms: _53  and  _54
REMARK   24  A    between atoms: _59  and  _61
REMARK   25  A    between atoms: _61  and  _62
REMARK   26  A    between atoms: _61  and  _64
REMARK   27  A    between atoms: _67  and  _69
REMARK   28  A    between atoms: _69  and  _70
REMARK   29  A    between atoms: _69  and  _72
REMARK   30  A    between atoms: _72  and  _73
REMARK   31  A    between atoms: _76  and  _78
REMARK   32  A    between atoms: _78  and  _79
REMARK   33  A    between atoms: _78  and  _81
REMARK   34  A    between atoms: _81  and  _82
REMARK   35  A    between atoms: _85  and  _87
REMARK   36  A    between atoms: _87  and  _88
REMARK   37  A    between atoms: _87  and  _90
REMARK   38  A    between atoms: _90  and  _91
REMARK   39  A    between atoms: _91  and  _92
REMARK   40  A    between atoms: _92  and  _93
REMARK   41  A    between atoms: _102  and  _104
REMARK   42  A    between atoms: _104  and  _105
REMARK   43  A    between atoms: _104  and  _107
REMARK   44  A    between atoms: _107  and  _108
REMARK   45  A    between atoms: _114  and  _116
REMARK   46  A    between atoms: _116  and  _117
REMARK   47  A    between atoms: _120  and  _121
REMARK   48  A    between atoms: _126  and  _128
REMARK   49  A    between atoms: _128  and  _129
REMARK   50  A    between atoms: _128  and  _131
REMARK   51  A    between atoms: _131  and  _132
REMARK   52  A    between atoms: _132  and  _133
REMARK   53  A    between atoms: _133  and  _134
REMARK   54  A    between atoms: _134  and  _135
REMARK   55  A    between atoms: _139  and  _141
REMARK   56  A    between atoms: _141  and  _142
REMARK   57  A    between atoms: _141  and  _144
REMARK   58  A    between atoms: _144  and  _145
REMARK   59  A    between atoms: _145  and  _146
REMARK   60  A    between atoms: _146  and  _147
REMARK   61  A    between atoms: _156  and  _158
REMARK   62  A    between atoms: _158  and  _159
REMARK   63  A    between atoms: _158  and  _161
REMARK   64  A    between atoms: _161  and  _162
REMARK   65  A    between atoms: _165  and  _167
REMARK   66  A    between atoms: _167  and  _168
REMARK   67  A    between atoms: _167  and  _170
REMARK   68  A    between atoms: _170  and  _171
REMARK   69  A    between atoms: _171  and  _172
REMARK   70  A    between atoms: _175  and  _177
REMARK   71  A    between atoms: _177  and  _178
REMARK   72  A    between atoms: _177  and  _180
REMARK   73  A    between atoms: _180  and  _181
REMARK   74  A    between atoms: _181  and  _182
REMARK   75  A    between atoms: _187  and  _189
REMARK   76  A    between atoms: _189  and  _190
REMARK   77  A    between atoms: _189  and  _192
REMARK   78  A    between atoms: _192  and  _193
REMARK   79  A    between atoms: _199  and  _201
REMARK   80  A    between atoms: _201  and  _202
REMARK   81  A    between atoms: _201  and  _204
REMARK   82  A    between atoms: _204  and  _205
REMARK   83  A    between atoms: _209  and  _210
REMARK   84  A    between atoms: _215  and  _217
REMARK   85  A    between atoms: _217  and  _218
REMARK   86  A    between atoms: _217  and  _220
REMARK   87  A    between atoms: _220  and  _221
REMARK   88  A    between atoms: _223  and  _225
REMARK   89  A    between atoms: _225  and  _226
REMARK   90  A    between atoms: _225  and  _228
REMARK   91  A    between atoms: _228  and  _229
REMARK   92  A    between atoms: _229  and  _230
REMARK   93  A    between atoms: _230  and  _231
REMARK   94  A    between atoms: _240  and  _242
REMARK   95  A    between atoms: _242  and  _243
REMARK   96  A    between atoms: _242  and  _245
REMARK   97  A    between atoms: _245  and  _246
REMARK   98  A    between atoms: _246  and  _247
REMARK   99  A    between atoms: _247  and  _248
REMARK  100  A    between atoms: _257  and  _259
REMARK  101  A    between atoms: _259  and  _260
REMARK  102  A    between atoms: _259  and  _262
REMARK  103  A    between atoms: _262  and  _263
REMARK  104  A    between atoms: _266  and  _268
REMARK  105  A    between atoms: _268  and  _269
REMARK  106  A    between atoms: _268  and  _271
REMARK  107  A    between atoms: _271  and  _272
REMARK  108  A    between atoms: _277  and  _278
REMARK  109  A    between atoms: _280  and  _282
REMARK  110  A    between atoms: _282  and  _283
REMARK  111  A    between atoms: _282  and  _285
REMARK  112  A    between atoms: _285  and  _286
REMARK  113  A    between atoms: _291  and  _293
REMARK  114  A    between atoms: _293  and  _294
REMARK  115  A    between atoms: _293  and  _296
REMARK  116  A    between atoms: _296  and  _297
REMARK  117  A    between atoms: _300  and  _302
REMARK  118  A    between atoms: _302  and  _303
REMARK  119  A    between atoms: _302  and  _305
REMARK  120  A    between atoms: _307  and  _309
REMARK  121  A    between atoms: _309  and  _310
REMARK  122  A    between atoms: _309  and  _312
REMARK  123  A    between atoms: _312  and  _313
REMARK  124  A    between atoms: _313  and  _314
REMARK  125  A    between atoms: _319  and  _321
REMARK  126  A    between atoms: _321  and  _322
REMARK  127  A    between atoms: _321  and  _324
REMARK  128  A    between atoms: _324  and  _325
REMARK  129  A    between atoms: _325  and  _326
REMARK  130  A    between atoms: _329  and  _331
REMARK  131  A    between atoms: _331  and  _332
REMARK  132  A    between atoms: _334  and  _336
REMARK  133  A    between atoms: _336  and  _337
REMARK  134  A    between atoms: _336  and  _339
REMARK  135  A    between atoms: _339  and  _340
REMARK  136  A    between atoms: _345  and  _347
REMARK  137  A    between atoms: _347  and  _348
REMARK  138  A    between atoms: _347  and  _350
REMARK  139  A    between atoms: _350  and  _351
REMARK  140  A    between atoms: _354  and  _356
REMARK  141  A    between atoms: _356  and  _357
REMARK  142  A    between atoms: _356  and  _359
REMARK  143  A    between atoms: _359  and  _360
REMARK  144  A    between atoms: _363  and  _365
REMARK  145  A    between atoms: _365  and  _366
REMARK  146  A    between atoms: _365  and  _368
REMARK  147  A    between atoms: _368  and  _369
REMARK  148  A    between atoms: _369  and  _370
REMARK  149  A    between atoms: _372  and  _374
REMARK  150  A    between atoms: _374  and  _375
REMARK  151  A    between atoms: _374  and  _377
REMARK  152  A    between atoms: _377  and  _378
REMARK  153  A    between atoms: _381  and  _383
REMARK  154  A    between atoms: _383  and  _384
REMARK  155  A    between atoms: _383  and  _386
REMARK  156  A    between atoms: _386  and  _387
REMARK  157  A    between atoms: _390  and  _392
REMARK  158  A    between atoms: _392  and  _393
REMARK  159  A    between atoms: _392  and  _395
REMARK  160  A    between atoms: _395  and  _396
REMARK  161  A    between atoms: _396  and  _397
REMARK  162  A    between atoms: _400  and  _402
REMARK  163  A    between atoms: _402  and  _403
REMARK  164  A    between atoms: _402  and  _405
REMARK  165  A    between atoms: _405  and  _406
REMARK  166  A    between atoms: _411  and  _412
REMARK  167  A    between atoms: _414  and  _416
REMARK  168  A    between atoms: _416  and  _417
REMARK  169  A    between atoms: _416  and  _419
REMARK  170  A    between atoms: _419  and  _420
REMARK  171  A    between atoms: _426  and  _428
REMARK  172  A    between atoms: _428  and  _429
REMARK  173  A    between atoms: _428  and  _431
REMARK  174  A    between atoms: _431  and  _432
REMARK  175  A    between atoms: _437  and  _439
REMARK  176  A    between atoms: _439  and  _440
REMARK  177  A    between atoms: _439  and  _442
REMARK  178  A    between atoms: _442  and  _443
REMARK  179  A    between atoms: _443  and  _444
REMARK  180  A    between atoms: _447  and  _449
REMARK  181  A    between atoms: _449  and  _450
REMARK  182  A    between atoms: _449  and  _452
REMARK  183  A    between atoms: _452  and  _453
REMARK  184  A    between atoms: _458  and  _459
REMARK  185  A    between atoms: _461  and  _463
REMARK  186  A    between atoms: _463  and  _464
REMARK  187  A    between atoms: _463  and  _466
REMARK  188  A    between atoms: _466  and  _467
REMARK  189  A    between atoms: _470  and  _472
REMARK  190  A    between atoms: _472  and  _473
REMARK  191  A    between atoms: _472  and  _475
REMARK  192  A    between atoms: _475  and  _476
REMARK  193  A    between atoms: _481  and  _482
REMARK  194  A    between atoms: _484  and  _486
REMARK  195  A    between atoms: _486  and  _487
REMARK  196  A    between atoms: _486  and  _489
REMARK  197  A    between atoms: _489  and  _490
REMARK  198  A    between atoms: _493  and  _494
REMARK  199  A    between atoms: _499  and  _501
REMARK  200  A    between atoms: _501  and  _502
REMARK  201  A    between atoms: _501  and  _504
REMARK  202  A    between atoms: _504  and  _505
REMARK  203  A    between atoms: _511  and  _513
REMARK  204  A    between atoms: _513  and  _514
REMARK  205  A    between atoms: _513  and  _516
REMARK  206  A    between atoms: _516  and  _517
REMARK  207  A    between atoms: _523  and  _525
REMARK  208  A    between atoms: _525  and  _526
REMARK  209  A    between atoms: _525  and  _528
REMARK  210  A    between atoms: _528  and  _529
REMARK  211  A    between atoms: _531  and  _533
REMARK  212  A    between atoms: _533  and  _534
REMARK  213  A    between atoms: _533  and  _536
REMARK  214  A    between atoms: _536  and  _537
REMARK  215  A    between atoms: _540  and  _542
REMARK  216  A    between atoms: _542  and  _543
REMARK  217  A    between atoms: _542  and  _545
REMARK  218  A    between atoms: _545  and  _546
REMARK  219  A    between atoms: _556  and  _558
REMARK  220  A    between atoms: _558  and  _559
REMARK  221  A    between atoms: _561  and  _563
REMARK  222  A    between atoms: _563  and  _564
REMARK  223  A    between atoms: _563  and  _566
REMARK  224  A    between atoms: _566  and  _567
REMARK  225  A    between atoms: _577  and  _579
REMARK  226  A    between atoms: _579  and  _580
REMARK  227  A    between atoms: _579  and  _582
REMARK  228  A    between atoms: _582  and  _583
REMARK  229  A    between atoms: _585  and  _587
REMARK  230  A    between atoms: _587  and  _588
REMARK  231  A    between atoms: _587  and  _590
REMARK  232  A    between atoms: _590  and  _591
REMARK  233  A    between atoms: _591  and  _592
REMARK  234  A    between atoms: _597  and  _599
REMARK  235  A    between atoms: _599  and  _600
REMARK  236  A    between atoms: _599  and  _602
REMARK  237  A    between atoms: _602  and  _603
REMARK  238  A    between atoms: _605  and  _607
REMARK  239  A    between atoms: _607  and  _608
REMARK  240  A    between atoms: _607  and  _610
REMARK  241  A    between atoms: _610  and  _611
REMARK  242  A    between atoms: _614  and  _616
REMARK  243  A    between atoms: _616  and  _617
REMARK  244  A    between atoms: _616  and  _619
REMARK  245  A    between atoms: _619  and  _620
REMARK  246  A    between atoms: _620  and  _621
REMARK  247  A    between atoms: _624  and  _626
REMARK  248  A    between atoms: _626  and  _627
REMARK  249  A    between atoms: _626  and  _629
REMARK  250  A    between atoms: _629  and  _630
REMARK  251  A    between atoms: _636  and  _638
REMARK  252  A    between atoms: _638  and  _639
REMARK  253  A    between atoms: _641  and  _643
REMARK  254  A    between atoms: _643  and  _644
REMARK  255  A    between atoms: _643  and  _646
REMARK  256  A    between atoms: _646  and  _647
REMARK  257  A    between atoms: _652  and  _653
REMARK  258  A    between atoms: _655  and  _657
REMARK  259  A    between atoms: _657  and  _658
REMARK  260  A    between atoms: _657  and  _660
REMARK  261  A    between atoms: _660  and  _661
REMARK  262  A    between atoms: _666  and  _667
REMARK  263  A    between atoms: _669  and  _671
REMARK  264  A    between atoms: _671  and  _672
REMARK  265  A    between atoms: _671  and  _674
REMARK  266  A    between atoms: _674  and  _675
REMARK  267  A    between atoms: _675  and  _676
REMARK  268  A    between atoms: _676  and  _677
REMARK                            x       y       z     vdW  Elec       q    Type
REMARK                         _______ _______ _______ _____ _____    ______ ____
ROOT
ATOM      1  C   PRO A   2     -17.423  -4.017 -15.859  0.00  0.00    +0.241 C 
ATOM      2  O   PRO A   2     -16.251  -4.261 -15.581  0.00  0.00    -0.273 OA
ATOM      3  N   LYS A   3     -18.100  -4.705 -16.772  0.00  0.00    -0.298 N 
ATOM      4  H   LYS A   3     -19.120  -4.540 -16.886  0.00  0.00    +0.150 HD
ENDROOT
BRANCH   1  11
ATOM      5  C   GLY A   1     -17.916  -3.845 -12.897  0.00  0.00    +0.243 C 
ATOM      6  O   GLY A   1     -18.452  -4.914 -13.223  0.00  0.00    -0.273 OA
ATOM      7  N   PRO A   2     -17.779  -2.800 -13.725  0.00  0.00    -0.272 N 
ATOM      8  CD  PRO A   2     -17.094  -1.532 -13.406  0.00  0.00    +0.094 C 
ATOM      9  CG  PRO A   2     -17.543  -0.612 -14.517  0.00  0.00    +0.024 C 
ATOM     10  CB  PRO A   2     -17.762  -1.503 -15.708  0.00  0.00    +0.031 C 
ATOM     11  CA  PRO A   2     -18.172  -2.881 -15.135  0.00  0.00    +0.152 C 
BRANCH   5  12
ATOM     12  CA  GLY A   1     -17.386  -3.672 -11.499  0.00  0.00    +0.170 C 
BRANCH  12  13
ATOM     13  N   GLY A   1     -17.728  -4.837 -10.713  0.00  0.00    -0.236 NA
ATOM     14  H   GLY A   1     -17.917  -5.741 -11.192  0.00  0.00    +0.142 HD
ENDBRANCH  12  13
ENDBRANCH   5  12
ENDBRANCH   1  11
BRANCH   3  15
ATOM     15  CA  LYS A   3     -17.427  -5.693 -17.620  0.00  0.00    +0.137 C 
BRANCH  15  16
ATOM     16  C   LYS A   3     -16.329  -5.023 -18.417  0.00  0.00    +0.227 C 
ATOM     17  O   LYS A   3     -16.418  -3.836 -18.733  0.00  0.00    -0.286 OA
ENDBRANCH  15  16
BRANCH  15  18
ATOM     18  CB  LYS A   3     -18.410  -6.366 -18.581  0.00  0.00    +0.028 C 
BRANCH  18  19
ATOM     19  CG  LYS A   3     -19.349  -7.362 -17.933  0.00  0.00    -0.000 C 
BRANCH  19  20
ATOM     20  CD  LYS A   3     -20.243  -7.965 -19.005  0.00  0.00    -0.024 C 
BRANCH  20  21
ATOM     21  CE  LYS A   3     -21.611  -8.307 -18.437  0.00  0.00    -0.086 C 
BRANCH  21  22
ATOM     22  NZ  LYS A   3     -22.305  -9.311 -19.290  0.00  0.00    +0.380 N 
ATOM     23  HZ1 LYS A   3     -23.236  -9.527 -18.881  0.00  0.00    -0.089 HD
ATOM     24  HZ2 LYS A   3     -21.735 -10.179 -19.335  0.00  0.00    -0.089 HD
ATOM     25  HZ3 LYS A   3     -22.427  -8.925 -20.248  0.00  0.00    -0.089 HD
ENDBRANCH  21  22
ENDBRANCH  20  21
ENDBRANCH  19  20
ENDBRANCH  18  19
ENDBRANCH  15  18
ENDBRANCH   3  15
TORSDOF 10
REMARK  Name = ../refined-set-2016/3zm9/3zm9_pocket.pdb
REMARK  268 active torsions:
REMARK  status: ('A' for Active; 'I' for Inactive)
REMARK    1  A    between atoms: _1  and  _3
REMARK    2  A    between atoms: _3  and  _4
REMARK    3  A    between atoms: _3  and  _6
REMARK    4  A    between atoms: _6  and  _7
REMARK    5  A    between atoms: _10  and  _12
REMARK    6  A    between atoms: _12  and  _13
REMARK    7  A    between atoms: _12  and  _15
REMARK    8  A    between atoms: _15  and  _16
REMARK    9  A    between atoms: _16  and  _17
REMARK   10  A    between atoms: _17  and  _18
REMARK   11  A    between atoms: _27  and  _29
REMARK   12  A    between atoms: _29  and  _30
REMARK   13  A    between atoms: _29  and  _32
REMARK   14  A    between atoms: _32  and  _33
REMARK   15  A    between atoms: _38  and  _40
REMARK   16  A    between atoms: _40  and  _41
REMARK   17  A    between atoms: _40  and  _43
REMARK   18  A    between atoms: _43  and  _44
REMARK   19  A    between atoms: _47  and  _49
REMARK   20  A    between atoms: _49  and  _50
REMARK   21  A    between atoms: _49  and  _52
REMARK   22  A    between atoms: _52  and  _53
REMARK   23  A    between atoms: _53  and  _54
REMARK   24  A    between atoms: _59  and  _61
REMARK   25  A    between atoms: _61  and  _62
REMARK   26  A    between atoms: _61  and  _64
REMARK   27  A    between atoms: _67  and  _69
REMARK   28  A    between atoms: _69  and  _70
REMARK   29  A    between atoms: _69  and  _72
REMARK   30  A    between atoms: _72  and  _73
REMARK   31  A    between atoms: _76  and  _78
REMARK   32  A    between atoms: _78  and  _79
REMARK   33  A    between atoms: _78  and  _81
REMARK   34  A    between atoms: _81  and  _82
REMARK   35  A    between atoms: _85  and  _87
REMARK   36  A    between atoms: _87  and  _88
REMARK   37  A    between atoms: _87  and  _90
REMARK   38  A    between atoms: _90  and  _91
REMARK   39  A    between atoms: _91  and  _92
REMARK   40  A    between atoms: _92  and  _93
REMARK   41  A    between atoms: _102  and  _104
REMARK   42  A    between atoms: _104  and  _105
REMARK   43  A    between atoms: _104  and  _107
REMARK   44  A    between atoms: _107  and  _108
REMARK   45  A    between atoms: _114  and  _116
REMARK   46  A    between atoms: _116  and  _117
REMARK   47  A    between atoms: _120  and  _121
REMARK   48  A    between atoms: _126  and  _128
REMARK   49  A    between atoms: _128  and  _129
REMARK   50  A    between atoms: _128  and  _131
REMARK   51  A    between atoms: _131  and  _132
REMARK   52  A    between atoms: _132  and  _133
REMARK   53  A    between atoms: _133  and  _134
REMARK   54  A    between atoms: _134  and  _135
REMARK   55  A    between atoms: _139  and  _141
REMARK   56  A    between atoms: _141  and  _142
REMARK   57  A    between atoms: _141  and  _144
REMARK   58  A    between atoms: _144  and  _145
REMARK   59  A    between atoms: _145  and  _146
REMARK   60  A    between atoms: _146  and  _147
REMARK   61  A    between atoms: _156  and  _158
REMARK   62  A    between atoms: _158  and  _159
REMARK   63  A    between atoms: _158  and  _161
REMARK   64  A    between atoms: _161  and  _162
REMARK   65  A    between atoms: _165  and  _167
REMARK   66  A    between atoms: _167  and  _168
REMARK   67  A    between atoms: _167  and  _170
REMARK   68  A    between atoms: _170  and  _171
REMARK   69  A    between atoms: _171  and  _172
REMARK   70  A    between atoms: _175  and  _177
REMARK   71  A    between atoms: _177  and  _178
REMARK   72  A    between atoms: _177  and  _180
REMARK   73  A    between atoms: _180  and  _181
REMARK   74  A    between atoms: _181  and  _182
REMARK   75  A    between atoms: _187  and  _189
REMARK   76  A    between atoms: _189  and  _190
REMARK   77  A    between atoms: _189  and  _192
REMARK   78  A    between atoms: _192  and  _193
REMARK   79  A    between atoms: _199  and  _201
REMARK   80  A    between atoms: _201  and  _202
REMARK   81  A    between atoms: _201  and  _204
REMARK   82  A    between atoms: _204  and  _205
REMARK   83  A    between atoms: _209  and  _210
REMARK   84  A    between atoms: _215  and  _217
REMARK   85  A    between atoms: _217  and  _218
REMARK   86  A    between atoms: _217  and  _220
REMARK   87  A    between atoms: _220  and  _221
REMARK   88  A    between atoms: _223  and  _225
REMARK   89  A    between atoms: _225  and  _226
REMARK   90  A    between atoms: _225  and  _228
REMARK   91  A    between atoms: _228  and  _229
REMARK   92  A    between atoms: _229  and  _230
REMARK   93  A    between atoms: _230  and  _231
REMARK   94  A    between atoms: _240  and  _242
REMARK   95  A    between atoms: _242  and  _243
REMARK   96  A    between atoms: _242  and  _245
REMARK   97  A    between atoms: _245  and  _246
REMARK   98  A    between atoms: _246  and  _247
REMARK   99  A    between atoms: _247  and  _248
REMARK  100  A    between atoms: _257  and  _259
REMARK  101  A    between atoms: _259  and  _260
REMARK  102  A    between atoms: _259  and  _262
REMARK  103  A    between atoms: _262  and  _263
REMARK  104  A    between atoms: _266  and  _268
REMARK  105  A    between atoms: _268  and  _269
REMARK  106  A    between atoms: _268  and  _271
REMARK  107  A    between atoms: _271  and  _272
REMARK  108  A    between atoms: _277  and  _278
REMARK  109  A    between atoms: _280  and  _282
REMARK  110  A    between atoms: _282  and  _283
REMARK  111  A    between atoms: _282  and  _285
REMARK  112  A    between atoms: _285  and  _286
REMARK  113  A    between atoms: _291  and  _293
REMARK  114  A    between atoms: _293  and  _294
REMARK  115  A    between atoms: _293  and  _296
REMARK  116  A    between atoms: _296  and  _297
REMARK  117  A    between atoms: _300  and  _302
REMARK  118  A    between atoms: _302  and  _303
REMARK  119  A    between atoms: _302  and  _305
REMARK  120  A    between atoms: _307  and  _309
REMARK  121  A    between atoms: _309  and  _310
REMARK  122  A    between atoms: _309  and  _312
REMARK  123  A    between atoms: _312  and  _313
REMARK  124  A    between atoms: _313  and  _314
REMARK  125  A    between atoms: _319  and  _321
REMARK  126  A    between atoms: _321  and  _322
REMARK  127  A    between atoms: _321  and  _324
REMARK  128  A    between atoms: _324  and  _325
REMARK  129  A    between atoms: _325  and  _326
REMARK  130  A    between atoms: _329  and  _331
REMARK  131  A    between atoms: _331  and  _332
REMARK  132  A    between atoms: _334  and  _336
REMARK  133  A    between atoms: _336  and  _337
REMARK  134  A    between atoms: _336  and  _339
REMARK  135  A    between atoms: _339  and  _340
REMARK  136  A    between atoms: _345  and  _347
REMARK  137  A    between atoms: _347  and  _348
REMARK  138  A    between atoms: _347  and  _350
REMARK  139  A    between atoms: _350  and  _351
REMARK  140  A    between atoms: _354  and  _356
REMARK  141  A    between atoms: _356  and  _357
REMARK  142  A    between atoms: _356  and  _359
REMARK  143  A    between atoms: _359  and  _360
REMARK  144  A    between atoms: _363  and  _365
REMARK  145  A    between atoms: _365  and  _366
REMARK  146  A    between atoms: _365  and  _368
REMARK  147  A    between atoms: _368  and  _369
REMARK  148  A    between atoms: _369  and  _370
REMARK  149  A    between atoms: _372  and  _374
REMARK  150  A    between atoms: _374  and  _375
REMARK  151  A    between atoms: _374  and  _377
REMARK  152  A    between atoms: _377  and  _378
REMARK  153  A    between atoms: _381  and  _383
REMARK  154  A    between atoms: _383  and  _384
REMARK  155  A    between atoms: _383  and  _386
REMARK  156  A    between atoms: _386  and  _387
REMARK  157  A    between atoms: _390  and  _392
REMARK  158  A    between atoms: _392  and  _393
REMARK  159  A    between atoms: _392  and  _395
REMARK  160  A    between atoms: _395  and  _396
REMARK  161  A    between atoms: _396  and  _397
REMARK  162  A    between atoms: _400  and  _402
REMARK  163  A    between atoms: _402  and  _403
REMARK  164  A    between atoms: _402  and  _405
REMARK  165  A    between atoms: _405  and  _406
REMARK  166  A    between atoms: _411  and  _412
REMARK  167  A    between atoms: _414  and  _416
REMARK  168  A    between atoms: _416  and  _417
REMARK  169  A    between atoms: _416  and  _419
REMARK  170  A    between atoms: _419  and  _420
REMARK  171  A    between atoms: _426  and  _428
REMARK  172  A    between atoms: _428  and  _429
REMARK  173  A    between atoms: _428  and  _431
REMARK  174  A    between atoms: _431  and  _432
REMARK  175  A    between atoms: _437  and  _439
REMARK  176  A    between atoms: _439  and  _440
REMARK  177  A    between atoms: _439  and  _442
REMARK  178  A    between atoms: _442  and  _443
REMARK  179  A    between atoms: _443  and  _444
REMARK  180  A    between atoms: _447  and  _449
REMARK  181  A    between atoms: _449  and  _450
REMARK  182  A    between atoms: _449  and  _452
REMARK  183  A    between atoms: _452  and  _453
REMARK  184  A    between atoms: _458  and  _459
REMARK  185  A    between atoms: _461  and  _463
REMARK  186  A    between atoms: _463  and  _464
REMARK  187  A    between atoms: _463  and  _466
REMARK  188  A    between atoms: _466  and  _467
REMARK  189  A    between atoms: _470  and  _472
REMARK  190  A    between atoms: _472  and  _473
REMARK  191  A    between atoms: _472  and  _475
REMARK  192  A    between atoms: _475  and  _476
REMARK  193  A    between atoms: _481  and  _482
REMARK  194  A    between atoms: _484  and  _486
REMARK  195  A    between atoms: _486  and  _487
REMARK  196  A    between atoms: _486  and  _489
REMARK  197  A    between atoms: _489  and  _490
REMARK  198  A    between atoms: _493  and  _494
REMARK  199  A    between atoms: _499  and  _501
REMARK  200  A    between atoms: _501  and  _502
REMARK  201  A    between atoms: _501  and  _504
REMARK  202  A    between atoms: _504  and  _505
REMARK  203  A    between atoms: _511  and  _513
REMARK  204  A    between atoms: _513  and  _514
REMARK  205  A    between atoms: _513  and  _516
REMARK  206  A    between atoms: _516  and  _517
REMARK  207  A    between atoms: _523  and  _525
REMARK  208  A    between atoms: _525  and  _526
REMARK  209  A    between atoms: _525  and  _528
REMARK  210  A    between atoms: _528  and  _529
REMARK  211  A    between atoms: _531  and  _533
REMARK  212  A    between atoms: _533  and  _534
REMARK  213  A    between atoms: _533  and  _536
REMARK  214  A    between atoms: _536  and  _537
REMARK  215  A    between atoms: _540  and  _542
REMARK  216  A    between atoms: _542  and  _543
REMARK  217  A    between atoms: _542  and  _545
REMARK  218  A    between atoms: _545  and  _546
REMARK  219  A    between atoms: _556  and  _558
REMARK  220  A    between atoms: _558  and  _559
REMARK  221  A    between atoms: _561  and  _563
REMARK  222  A    between atoms: _563  and  _564
REMARK  223  A    between atoms: _563  and  _566
REMARK  224  A    between atoms: _566  and  _567
REMARK  225  A    between atoms: _577  and  _579
REMARK  226  A    between atoms: _579  and  _580
REMARK  227  A    between atoms: _579  and  _582
REMARK  228  A    between atoms: _582  and  _583
REMARK  229  A    between atoms: _585  and  _587
REMARK  230  A    between atoms: _587  and  _588
REMARK  231  A    between atoms: _587  and  _590
REMARK  232  A    between atoms: _590  and  _591
REMARK  233  A    between atoms: _591  and  _592
REMARK  234  A    between atoms: _597  and  _599
REMARK  235  A    between atoms: _599  and  _600
REMARK  236  A    between atoms: _599  and  _602
REMARK  237  A    between atoms: _602  and  _603
REMARK  238  A    between atoms: _605  and  _607
REMARK  239  A    between atoms: _607  and  _608
REMARK  240  A    between atoms: _607  and  _610
REMARK  241  A    between atoms: _610  and  _611
REMARK  242  A    between atoms: _614  and  _616
REMARK  243  A    between atoms: _616  and  _617
REMARK  244  A    between atoms: _616  and  _619
REMARK  245  A    between atoms: _619  and  _620
REMARK  246  A    between atoms: _620  and  _621
REMARK  247  A    between atoms: _624  and  _626
REMARK  248  A    between atoms: _626  and  _627
REMARK  249  A    between atoms: _626  and  _629
REMARK  250  A    between atoms: _629  and  _630
REMARK  251  A    between atoms: _636  and  _638
REMARK  252  A    between atoms: _638  and  _639
REMARK  253  A    between atoms: _641  and  _643
REMARK  254  A    between atoms: _643  and  _644
REMARK  255  A    between atoms: _643  and  _646
REMARK  256  A    between atoms: _646  and  _647
REMARK  257  A    between atoms: _652  and  _653
REMARK  258  A    between atoms: _655  and  _657
REMARK  259  A    between atoms: _657  and  _658
REMARK  260  A    between atoms: _657  and  _660
REMARK  261  A    between atoms: _660  and  _661
REMARK  262  A    between atoms: _666  and  _667
REMARK  263  A    between atoms: _669  and  _671
REMARK  264  A    between atoms: _671  and  _672
REMARK  265  A    between atoms: _671  and  _674
REMARK  266  A    between atoms: _674  and  _675
REMARK  267  A    between atoms: _675  and  _676
REMARK  268  A    between atoms: _676  and  _677
REMARK                            x       y       z     vdW  Elec       q    Type
REMARK                         _______ _______ _______ _____ _____    ______ ____
ROOT
ATOM      1  CA  ILE A   6     -23.730   1.233 -16.831  0.00  0.00    +0.149 C 
ENDROOT
BRANCH   1   2
ATOM      2  C   ILE A   6     -24.697   2.411 -16.747  0.00  0.00    +0.244 C 
ATOM      3  O   ILE A   6     -24.293   3.477 -16.282  0.00  0.00    -0.273 OA
ATOM      4  N   PRO A   7     -25.975   2.220 -17.157  0.00  0.00    -0.272 N 
ATOM      5  CA  PRO A   7     -26.985   3.293 -17.022  0.00  0.00    +0.152 C 
ATOM      6  CB  PRO A   7     -28.270   2.656 -17.584  0.00  0.00    +0.031 C 
ATOM      7  CG  PRO A   7     -27.789   1.527 -18.435  0.00  0.00    +0.024 C 
ATOM      8  CD  PRO A   7     -26.559   1.006 -17.751  0.00  0.00    +0.094 C 
BRANCH   5   9
ATOM      9  C   PRO A   7     -27.179   3.696 -15.552  0.00  0.00    +0.241 C 
ATOM     10  O   PRO A   7     -27.582   2.885 -14.726  0.00  0.00    -0.273 OA
ATOM     11  N   SER A   8     -26.876   4.945 -15.243  0.00  0.00    -0.295 N 
ATOM     12  H   SER A   8     -26.752   5.641 -16.006  0.00  0.00    +0.150 HD
BRANCH  11  13
ATOM     13  CA  SER A   8     -26.711   5.372 -13.851  0.00  0.00    +0.178 C 
BRANCH  13  14
ATOM     14  C   SER A   8     -26.388   6.849 -13.795  0.00  0.00    +0.243 C 
ATOM     15  N   ARG A   9     -26.300   7.361 -12.573  0.00  0.00    -0.297 N 
ATOM     16  H   ARG A   9     -26.720   6.836 -11.780  0.00  0.00    +0.150 HD
ATOM     17  O   SER A   8     -26.203   7.498 -14.826  0.00  0.00    -0.273 OA
BRANCH  15  18
ATOM     18  CA  ARG A   9     -25.642   8.621 -12.302  0.00  0.00    +0.149 C 
BRANCH  18  19
ATOM     19  C   ARG A   9     -24.782   8.450 -11.053  0.00  0.00    +0.241 C 
ATOM     20  O   ARG A   9     -24.970   7.499 -10.282  0.00  0.00    -0.273 OA
ATOM     21  N   ARG A  10     -23.846   9.371 -10.860  0.00  0.00    -0.297 N 
ATOM     22  H   ARG A  10     -23.657  10.065 -11.611  0.00  0.00    +0.150 HD
BRANCH  21  23
ATOM     23  CA  ARG A  10     -23.076   9.437  -9.625  0.00  0.00    +0.149 C 
BRANCH  23  24
ATOM     24  C   ARG A  10     -23.958   9.944  -8.499  0.00  0.00    +0.241 C 
ATOM     25  N   LEU A  11     -23.686   9.504  -7.277  0.00  0.00    -0.298 N 
ATOM     26  H   LEU A  11     -23.026   8.710  -7.153  0.00  0.00    +0.150 HD
ATOM     27  O   ARG A  10     -24.894  10.705  -8.738  0.00  0.00    -0.273 OA
BRANCH  25  28
ATOM     28  CA  LEU A  11     -24.305  10.123  -6.097  0.00  0.00    +0.137 C 
BRANCH  28  29
ATOM     29  C   LEU A  11     -23.785  11.538  -5.887  0.00  0.00    +0.227 C 
ATOM     30  O   LEU A  11     -22.648  11.857  -6.270  0.00  0.00    -0.286 OA
ENDBRANCH  28  29
BRANCH  28  31
ATOM     31  CB  LEU A  11     -24.004   9.318  -4.837  0.00  0.00    +0.028 C 
BRANCH  31  32
ATOM     32  CG  LEU A  11     -24.574   7.903  -4.739  0.00  0.00    +0.002 C 
ATOM     33  CD2 LEU A  11     -24.089   7.290  -3.437  0.00  0.00    +0.000 C 
ATOM     34  CD1 LEU A  11     -26.097   7.910  -4.811  0.00  0.00    +0.000 C 
ENDBRANCH  31  32
ENDBRANCH  28  31
ENDBRANCH  25  28
ENDBRANCH  23  24
BRANCH  23  35
ATOM     35  CB  ARG A  10     -21.895  10.384  -9.810  0.00  0.00    +0.033 C 
BRANCH  35  36
ATOM     36  CG  ARG A  10     -20.705   9.722 -10.484  0.00  0.00    +0.045 C 
BRANCH  36  37
ATOM     37  CD  ARG A  10     -20.218  10.472 -11.707  0.00  0.00    +0.174 C 
BRANCH  37  38
ATOM     38  NE  ARG A  10     -20.379  11.928 -11.651  0.00  0.00    -0.265 N 
ATOM     39  CZ  ARG A  10     -19.473  12.769 -11.162  0.00  0.00    +0.342 C 
ATOM     40  NH2 ARG A  10     -18.338  12.304 -10.656  0.00  0.00    -0.292 N 
ATOM     41 HH21 ARG A  10     -17.630  12.963 -10.274  0.00  0.00    +0.255 HD
ATOM     42 HH22 ARG A  10     -18.156  11.280 -10.642  0.00  0.00    +0.255 HD
ATOM     43  NH1 ARG A  10     -19.702  14.075 -11.171  0.00  0.00    -0.292 N 
ATOM     44 HH11 ARG A  10     -18.991  14.730 -10.788  0.00  0.00    +0.255 HD
ATOM     45 HH12 ARG A  10     -20.592  14.444 -11.561  0.00  0.00    +0.255 HD
ATOM     46  HE  ARG A  10     -21.264  12.331 -12.020  0.00  0.00    +0.259 HD
ENDBRANCH  37  38
ENDBRANCH  36  37
ENDBRANCH  35  36
ENDBRANCH  23  35
ENDBRANCH  21  23
ENDBRANCH  18  19
BRANCH  18  47
ATOM     47  CB  ARG A   9     -26.662   9.735 -12.077  0.00  0.00    +0.033 C 
BRANCH  47  48
ATOM     48  CG  ARG A   9     -27.514   9.545 -10.831  0.00  0.00    +0.045 C 
BRANCH  48  49
ATOM     49  CD  ARG A   9     -28.347  10.797 -10.569  0.00  0.00    +0.174 C 
BRANCH  49  50
ATOM     50  NE  ARG A   9     -29.302  10.665  -9.472  0.00  0.00    -0.265 N 
ATOM     51  CZ  ARG A   9     -29.006  10.757  -8.173  0.00  0.00    +0.342 C 
ATOM     52  NH2 ARG A   9     -29.979  10.651  -7.273  0.00  0.00    -0.292 N 
ATOM     53 HH21 ARG A   9     -29.759  10.721  -6.259  0.00  0.00    +0.255 HD
ATOM     54 HH22 ARG A   9     -30.960  10.498  -7.583  0.00  0.00    +0.255 HD
ATOM     55  NH1 ARG A   9     -27.742  10.921  -7.757  0.00  0.00    -0.292 N 
ATOM     56 HH11 ARG A   9     -27.534  10.990  -6.740  0.00  0.00    +0.255 HD
ATOM     57 HH12 ARG A   9     -26.970  10.979  -8.451  0.00  0.00    +0.255 HD
ATOM     58  HE  ARG A   9     -30.295  10.484  -9.723  0.00  0.00    +0.259 HD
ENDBRANCH  49  50
ENDBRANCH  48  49
ENDBRANCH  47  48
ENDBRANCH  18  47
ENDBRANCH  15  18
ENDBRANCH  13  14
BRANCH  13  59
ATOM     59  CB  SER A   8     -25.522   4.627 -13.223  0.00  0.00    +0.166 C 
BRANCH  59  60
ATOM     60  OG  SER A   8     -24.333   4.890 -13.959  0.00  0.00    -0.380 OA
ATOM     61  H   SER A   8     -24.450   4.585 -14.893  0.00  0.00    +0.211 HD
ENDBRANCH  59  60
ENDBRANCH  13  59
ENDBRANCH  11  13
ENDBRANCH   5   9
ENDBRANCH   1   2
BRANCH   1  63
ATOM     62  C   PHE A   5     -22.854   0.901 -19.085  0.00  0.00    +0.241 C 
ATOM     63  N   ILE A   6     -22.773   1.480 -17.896  0.00  0.00    -0.297 N 
ATOM     64  H   ILE A   6     -21.990   2.140 -17.717  0.00  0.00    +0.150 HD
ATOM     65  O   PHE A   5     -23.755   0.152 -19.406  0.00  0.00    -0.273 OA
BRANCH  62  66
ATOM     66  CA  PHE A   5     -21.722   1.207 -20.058  0.00  0.00    +0.153 C 
BRANCH  66  69
ATOM     67  C   GLN A   4     -20.064  -0.521 -19.662  0.00  0.00    +0.241 C 
ATOM     68  O   GLN A   4     -19.493   0.128 -18.774  0.00  0.00    -0.273 OA
ATOM     69  N   PHE A   5     -21.067  -0.049 -20.390  0.00  0.00    -0.297 N 
ATOM     70  H   PHE A   5     -21.393  -0.589 -21.217  0.00  0.00    +0.150 HD
BRANCH  67  71
ATOM     71  CA  GLN A   4     -19.603  -1.951 -20.001  0.00  0.00    +0.149 C 
BRANCH  71  73
ATOM     72  C   GLU A   3     -17.486  -1.117 -20.842  0.00  0.00    +0.241 C 
ATOM     73  N   GLN A   4     -18.156  -1.957 -20.062  0.00  0.00    -0.297 N 
ATOM     74  H   GLN A   4     -17.628  -2.637 -19.479  0.00  0.00    +0.150 HD
ATOM     75  O   GLU A   3     -18.024  -0.424 -21.708  0.00  0.00    -0.273 OA
BRANCH  72  76
ATOM     76  CA  GLU A   3     -15.994  -1.032 -20.594  0.00  0.00    +0.149 C 
BRANCH  76  78
ATOM     77  C   LEU A   2     -14.366  -1.216 -22.398  0.00  0.00    +0.241 C 
ATOM     78  N   GLU A   3     -15.305  -0.521 -21.765  0.00  0.00    -0.297 N 
ATOM     79  H   GLU A   3     -15.555   0.423 -22.121  0.00  0.00    +0.150 HD
ATOM     80  O   LEU A   2     -14.040  -2.367 -22.077  0.00  0.00    -0.273 OA
BRANCH  77  81
ATOM     81  CA  LEU A   2     -13.683  -0.528 -23.566  0.00  0.00    +0.149 C 
BRANCH  81  84
ATOM     82  C   ARG A   1     -11.550   0.520 -22.951  0.00  0.00    +0.238 C 
ATOM     83  O   ARG A   1     -11.983   1.671 -23.023  0.00  0.00    -0.274 OA
ATOM     84  N   LEU A   2     -12.241  -0.556 -23.313  0.00  0.00    -0.297 N 
ATOM     85  H   LEU A   2     -11.735  -1.458 -23.421  0.00  0.00    +0.150 HD
BRANCH  82  86
ATOM     86  CA  ARG A   1     -10.189   0.279 -22.353  0.00  0.00    +0.145 C 
BRANCH  86  87
ATOM     87  N   ARG A   1      -9.380   1.454 -22.687  0.00  0.00    -0.238 NA
ATOM     88  H   ARG A   1      -9.845   2.384 -22.672  0.00  0.00    +0.142 HD
ENDBRANCH  86  87
BRANCH  86  89
ATOM     89  CB  ARG A   1     -10.482   0.217 -20.842  0.00  0.00    +0.030 C 
BRANCH  89  90
ATOM     90  CG  ARG A   1      -9.369  -0.132 -19.901  0.00  0.00    +0.045 C 
BRANCH  90  91
ATOM     91  CD  ARG A   1      -9.972  -0.637 -18.591  0.00  0.00    +0.174 C 
BRANCH  91  92
ATOM     92  NE  ARG A   1     -10.596   0.384 -17.743  0.00  0.00    -0.265 N 
ATOM     93  CZ  ARG A   1     -10.089   0.790 -16.576  0.00  0.00    +0.342 C 
ATOM     94  NH2 ARG A   1     -10.721   1.692 -15.834  0.00  0.00    -0.292 N 
ATOM     95 HH21 ARG A   1     -10.313   1.998 -14.928  0.00  0.00    +0.255 HD
ATOM     96 HH22 ARG A   1     -11.624   2.093 -16.159  0.00  0.00    +0.255 HD
ATOM     97  NH1 ARG A   1      -8.937   0.297 -16.149  0.00  0.00    -0.292 N 
ATOM     98 HH11 ARG A   1      -8.541   0.612 -15.240  0.00  0.00    +0.255 HD
ATOM     99 HH12 ARG A   1      -8.428  -0.406 -16.722  0.00  0.00    +0.255 HD
ATOM    100  HE  ARG A   1     -11.484   0.817 -18.069  0.00  0.00    +0.259 HD
ENDBRANCH  91  92
ENDBRANCH  90  91
ENDBRANCH  89  90
ENDBRANCH  86  89
ENDBRANCH  82  86
ENDBRANCH  81  84
BRANCH  81 101
ATOM    101  CB  LEU A   2     -14.008  -1.300 -24.859  0.00  0.00    +0.029 C 
BRANCH 101 102
ATOM    102  CG  LEU A   2     -13.523  -0.608 -26.145  0.00  0.00    +0.002 C 
ATOM    103  CD2 LEU A   2     -14.267   0.710 -26.313  0.00  0.00    +0.000 C 
ATOM    104  CD1 LEU A   2     -13.705  -1.491 -27.387  0.00  0.00    +0.000 C 
ENDBRANCH 101 102
ENDBRANCH  81 101
ENDBRANCH  77  81
ENDBRANCH  76  78
BRANCH  76 105
ATOM    105  CB  GLU A   3     -15.784  -0.098 -19.394  0.00  0.00    +0.041 C 
BRANCH 105 106
ATOM    106  CG  GLU A   3     -14.342   0.277 -19.138  0.00  0.00    +0.116 C 
BRANCH 106 107
ATOM    107  CD  GLU A   3     -14.192   1.275 -17.985  0.00  0.00    +0.365 C 
ATOM    108  OE2 GLU A   3     -15.194   1.635 -17.333  0.00  0.00    -0.246 OA
ATOM    109  OE1 GLU A   3     -13.057   1.695 -17.739  0.00  0.00    -0.246 OA
ENDBRANCH 106 107
ENDBRANCH 105 106
ENDBRANCH  76 105
ENDBRANCH  72  76
ENDBRANCH  71  73
BRANCH  71 110
ATOM    110  CB  GLN A   4     -20.068  -2.896 -18.893  0.00  0.00    +0.039 C 
BRANCH 110 111
ATOM    111  CG  GLN A   4     -21.582  -3.073 -18.769  0.00  0.00    +0.087 C 
BRANCH 111 112
ATOM    112  CD  GLN A   4     -21.954  -3.901 -17.553  0.00  0.00    +0.219 C 
ATOM    113  OE1 GLN A   4     -21.079  -4.345 -16.805  0.00  0.00    -0.275 OA
ATOM    114  NE2 GLN A   4     -23.258  -4.111 -17.346  0.00  0.00    -0.329 N 
ATOM    115 HE21 GLN A   4     -23.571  -4.669 -16.526  0.00  0.00    +0.145 HD
ATOM    116 HE22 GLN A   4     -23.959  -3.716 -18.005  0.00  0.00    +0.145 HD
ENDBRANCH 111 112
ENDBRANCH 110 111
ENDBRANCH  71 110
ENDBRANCH  67  71
ENDBRANCH  66  69
BRANCH  66 117
ATOM    117  CB  PHE A   5     -22.253   1.951 -21.292  0.00  0.00    +0.055 C 
BRANCH 117 118
ATOM    118  CG  PHE A   5     -22.892   3.277 -20.951  0.00  0.00    -0.020 A 
ATOM    119  CD2 PHE A   5     -24.269   3.363 -20.700  0.00  0.00    -0.004 A 
ATOM    120  CE2 PHE A   5     -24.859   4.581 -20.360  0.00  0.00    -0.000 A 
ATOM    121  CZ  PHE A   5     -24.064   5.723 -20.219  0.00  0.00    -0.000 A 
ATOM    122  CE1 PHE A   5     -22.691   5.645 -20.440  0.00  0.00    -0.000 A 
ATOM    123  CD1 PHE A   5     -22.108   4.426 -20.801  0.00  0.00    -0.004 A 
ENDBRANCH 117 118
ENDBRANCH  66 117
ENDBRANCH  62  66
ENDBRANCH   1  63
BRANCH   1 124
ATOM    124  CB  ILE A   6     -23.016   1.130 -15.450  0.00  0.00    +0.027 C 
ATOM    125  CG2 ILE A   6     -24.024   0.840 -14.331  0.00  0.00    +0.002 C 
BRANCH 124 126
ATOM    126  CG1 ILE A   6     -21.836   0.135 -15.474  0.00  0.00    +0.002 C 
ATOM    127  CD1 ILE A   6     -22.248  -1.309 -15.528  0.00  0.00    +0.000 C 
ENDBRANCH 124 126
ENDBRANCH   1 124
TORSDOF 49
REMARK  Name = ../refined-set-2016/3zm9/3zm9_pocket.pdb
REMARK  268 active torsions:
REMARK  status: ('A' for Active; 'I' for Inactive)
REMARK    1  A    between atoms: _1  and  _3
REMARK    2  A    between atoms: _3  and  _4
REMARK    3  A    between atoms: _3  and  _6
REMARK    4  A    between atoms: _6  and  _7
REMARK    5  A    between atoms: _10  and  _12
REMARK    6  A    between atoms: _12  and  _13
REMARK    7  A    between atoms: _12  and  _15
REMARK    8  A    between atoms: _15  and  _16
REMARK    9  A    between atoms: _16  and  _17
REMARK   10  A    between atoms: _17  and  _18
REMARK   11  A    between atoms: _27  and  _29
REMARK   12  A    between atoms: _29  and  _30
REMARK   13  A    between atoms: _29  and  _32
REMARK   14  A    between atoms: _32  and  _33
REMARK   15  A    between atoms: _38  and  _40
REMARK   16  A    between atoms: _40  and  _41
REMARK   17  A    between atoms: _40  and  _43
REMARK   18  A    between atoms: _43  and  _44
REMARK   19  A    between atoms: _47  and  _49
REMARK   20  A    between atoms: _49  and  _50
REMARK   21  A    between atoms: _49  and  _52
REMARK   22  A    between atoms: _52  and  _53
REMARK   23  A    between atoms: _53  and  _54
REMARK   24  A    between atoms: _59  and  _61
REMARK   25  A    between atoms: _61  and  _62
REMARK   26  A    between atoms: _61  and  _64
REMARK   27  A    between atoms: _67  and  _69
REMARK   28  A    between atoms: _69  and  _70
REMARK   29  A    between atoms: _69  and  _72
REMARK   30  A    between atoms: _72  and  _73
REMARK   31  A    between atoms: _76  and  _78
REMARK   32  A    between atoms: _78  and  _79
REMARK   33  A    between atoms: _78  and  _81
REMARK   34  A    between atoms: _81  and  _82
REMARK   35  A    between atoms: _85  and  _87
REMARK   36  A    between atoms: _87  and  _88
REMARK   37  A    between atoms: _87  and  _90
REMARK   38  A    between atoms: _90  and  _91
REMARK   39  A    between atoms: _91  and  _92
REMARK   40  A    between atoms: _92  and  _93
REMARK   41  A    between atoms: _102  and  _104
REMARK   42  A    between atoms: _104  and  _105
REMARK   43  A    between atoms: _104  and  _107
REMARK   44  A    between atoms: _107  and  _108
REMARK   45  A    between atoms: _114  and  _116
REMARK   46  A    between atoms: _116  and  _117
REMARK   47  A    between atoms: _120  and  _121
REMARK   48  A    between atoms: _126  and  _128
REMARK   49  A    between atoms: _128  and  _129
REMARK   50  A    between atoms: _128  and  _131
REMARK   51  A    between atoms: _131  and  _132
REMARK   52  A    between atoms: _132  and  _133
REMARK   53  A    between atoms: _133  and  _134
REMARK   54  A    between atoms: _134  and  _135
REMARK   55  A    between atoms: _139  and  _141
REMARK   56  A    between atoms: _141  and  _142
REMARK   57  A    between atoms: _141  and  _144
REMARK   58  A    between atoms: _144  and  _145
REMARK   59  A    between atoms: _145  and  _146
REMARK   60  A    between atoms: _146  and  _147
REMARK   61  A    between atoms: _156  and  _158
REMARK   62  A    between atoms: _158  and  _159
REMARK   63  A    between atoms: _158  and  _161
REMARK   64  A    between atoms: _161  and  _162
REMARK   65  A    between atoms: _165  and  _167
REMARK   66  A    between atoms: _167  and  _168
REMARK   67  A    between atoms: _167  and  _170
REMARK   68  A    between atoms: _170  and  _171
REMARK   69  A    between atoms: _171  and  _172
REMARK   70  A    between atoms: _175  and  _177
REMARK   71  A    between atoms: _177  and  _178
REMARK   72  A    between atoms: _177  and  _180
REMARK   73  A    between atoms: _180  and  _181
REMARK   74  A    between atoms: _181  and  _182
REMARK   75  A    between atoms: _187  and  _189
REMARK   76  A    between atoms: _189  and  _190
REMARK   77  A    between atoms: _189  and  _192
REMARK   78  A    between atoms: _192  and  _193
REMARK   79  A    between atoms: _199  and  _201
REMARK   80  A    between atoms: _201  and  _202
REMARK   81  A    between atoms: _201  and  _204
REMARK   82  A    between atoms: _204  and  _205
REMARK   83  A    between atoms: _209  and  _210
REMARK   84  A    between atoms: _215  and  _217
REMARK   85  A    between atoms: _217  and  _218
REMARK   86  A    between atoms: _217  and  _220
REMARK   87  A    between atoms: _220  and  _221
REMARK   88  A    between atoms: _223  and  _225
REMARK   89  A    between atoms: _225  and  _226
REMARK   90  A    between atoms: _225  and  _228
REMARK   91  A    between atoms: _228  and  _229
REMARK   92  A    between atoms: _229  and  _230
REMARK   93  A    between atoms: _230  and  _231
REMARK   94  A    between atoms: _240  and  _242
REMARK   95  A    between atoms: _242  and  _243
REMARK   96  A    between atoms: _242  and  _245
REMARK   97  A    between atoms: _245  and  _246
REMARK   98  A    between atoms: _246  and  _247
REMARK   99  A    between atoms: _247  and  _248
REMARK  100  A    between atoms: _257  and  _259
REMARK  101  A    between atoms: _259  and  _260
REMARK  102  A    between atoms: _259  and  _262
REMARK  103  A    between atoms: _262  and  _263
REMARK  104  A    between atoms: _266  and  _268
REMARK  105  A    between atoms: _268  and  _269
REMARK  106  A    between atoms: _268  and  _271
REMARK  107  A    between atoms: _271  and  _272
REMARK  108  A    between atoms: _277  and  _278
REMARK  109  A    between atoms: _280  and  _282
REMARK  110  A    between atoms: _282  and  _283
REMARK  111  A    between atoms: _282  and  _285
REMARK  112  A    between atoms: _285  and  _286
REMARK  113  A    between atoms: _291  and  _293
REMARK  114  A    between atoms: _293  and  _294
REMARK  115  A    between atoms: _293  and  _296
REMARK  116  A    between atoms: _296  and  _297
REMARK  117  A    between atoms: _300  and  _302
REMARK  118  A    between atoms: _302  and  _303
REMARK  119  A    between atoms: _302  and  _305
REMARK  120  A    between atoms: _307  and  _309
REMARK  121  A    between atoms: _309  and  _310
REMARK  122  A    between atoms: _309  and  _312
REMARK  123  A    between atoms: _312  and  _313
REMARK  124  A    between atoms: _313  and  _314
REMARK  125  A    between atoms: _319  and  _321
REMARK  126  A    between atoms: _321  and  _322
REMARK  127  A    between atoms: _321  and  _324
REMARK  128  A    between atoms: _324  and  _325
REMARK  129  A    between atoms: _325  and  _326
REMARK  130  A    between atoms: _329  and  _331
REMARK  131  A    between atoms: _331  and  _332
REMARK  132  A    between atoms: _334  and  _336
REMARK  133  A    between atoms: _336  and  _337
REMARK  134  A    between atoms: _336  and  _339
REMARK  135  A    between atoms: _339  and  _340
REMARK  136  A    between atoms: _345  and  _347
REMARK  137  A    between atoms: _347  and  _348
REMARK  138  A    between atoms: _347  and  _350
REMARK  139  A    between atoms: _350  and  _351
REMARK  140  A    between atoms: _354  and  _356
REMARK  141  A    between atoms: _356  and  _357
REMARK  142  A    between atoms: _356  and  _359
REMARK  143  A    between atoms: _359  and  _360
REMARK  144  A    between atoms: _363  and  _365
REMARK  145  A    between atoms: _365  and  _366
REMARK  146  A    between atoms: _365  and  _368
REMARK  147  A    between atoms: _368  and  _369
REMARK  148  A    between atoms: _369  and  _370
REMARK  149  A    between atoms: _372  and  _374
REMARK  150  A    between atoms: _374  and  _375
REMARK  151  A    between atoms: _374  and  _377
REMARK  152  A    between atoms: _377  and  _378
REMARK  153  A    between atoms: _381  and  _383
REMARK  154  A    between atoms: _383  and  _384
REMARK  155  A    between atoms: _383  and  _386
REMARK  156  A    between atoms: _386  and  _387
REMARK  157  A    between atoms: _390  and  _392
REMARK  158  A    between atoms: _392  and  _393
REMARK  159  A    between atoms: _392  and  _395
REMARK  160  A    between atoms: _395  and  _396
REMARK  161  A    between atoms: _396  and  _397
REMARK  162  A    between atoms: _400  and  _402
REMARK  163  A    between atoms: _402  and  _403
REMARK  164  A    between atoms: _402  and  _405
REMARK  165  A    between atoms: _405  and  _406
REMARK  166  A    between atoms: _411  and  _412
REMARK  167  A    between atoms: _414  and  _416
REMARK  168  A    between atoms: _416  and  _417
REMARK  169  A    between atoms: _416  and  _419
REMARK  170  A    between atoms: _419  and  _420
REMARK  171  A    between atoms: _426  and  _428
REMARK  172  A    between atoms: _428  and  _429
REMARK  173  A    between atoms: _428  and  _431
REMARK  174  A    between atoms: _431  and  _432
REMARK  175  A    between atoms: _437  and  _439
REMARK  176  A    between atoms: _439  and  _440
REMARK  177  A    between atoms: _439  and  _442
REMARK  178  A    between atoms: _442  and  _443
REMARK  179  A    between atoms: _443  and  _444
REMARK  180  A    between atoms: _447  and  _449
REMARK  181  A    between atoms: _449  and  _450
REMARK  182  A    between atoms: _449  and  _452
REMARK  183  A    between atoms: _452  and  _453
REMARK  184  A    between atoms: _458  and  _459
REMARK  185  A    between atoms: _461  and  _463
REMARK  186  A    between atoms: _463  and  _464
REMARK  187  A    between atoms: _463  and  _466
REMARK  188  A    between atoms: _466  and  _467
REMARK  189  A    between atoms: _470  and  _472
REMARK  190  A    between atoms: _472  and  _473
REMARK  191  A    between atoms: _472  and  _475
REMARK  192  A    between atoms: _475  and  _476
REMARK  193  A    between atoms: _481  and  _482
REMARK  194  A    between atoms: _484  and  _486
REMARK  195  A    between atoms: _486  and  _487
REMARK  196  A    between atoms: _486  and  _489
REMARK  197  A    between atoms: _489  and  _490
REMARK  198  A    between atoms: _493  and  _494
REMARK  199  A    between atoms: _499  and  _501
REMARK  200  A    between atoms: _501  and  _502
REMARK  201  A    between atoms: _501  and  _504
REMARK  202  A    between atoms: _504  and  _505
REMARK  203  A    between atoms: _511  and  _513
REMARK  204  A    between atoms: _513  and  _514
REMARK  205  A    between atoms: _513  and  _516
REMARK  206  A    between atoms: _516  and  _517
REMARK  207  A    between atoms: _523  and  _525
REMARK  208  A    between atoms: _525  and  _526
REMARK  209  A    between atoms: _525  and  _528
REMARK  210  A    between atoms: _528  and  _529
REMARK  211  A    between atoms: _531  and  _533
REMARK  212  A    between atoms: _533  and  _534
REMARK  213  A    between atoms: _533  and  _536
REMARK  214  A    between atoms: _536  and  _537
REMARK  215  A    between atoms: _540  and  _542
REMARK  216  A    between atoms: _542  and  _543
REMARK  217  A    between atoms: _542  and  _545
REMARK  218  A    between atoms: _545  and  _546
REMARK  219  A    between atoms: _556  and  _558
REMARK  220  A    between atoms: _558  and  _559
REMARK  221  A    between atoms: _561  and  _563
REMARK  222  A    between atoms: _563  and  _564
REMARK  223  A    between atoms: _563  and  _566
REMARK  224  A    between atoms: _566  and  _567
REMARK  225  A    between atoms: _577  and  _579
REMARK  226  A    between atoms: _579  and  _580
REMARK  227  A    between atoms: _579  and  _582
REMARK  228  A    between atoms: _582  and  _583
REMARK  229  A    between atoms: _585  and  _587
REMARK  230  A    between atoms: _587  and  _588
REMARK  231  A    between atoms: _587  and  _590
REMARK  232  A    between atoms: _590  and  _591
REMARK  233  A    between atoms: _591  and  _592
REMARK  234  A    between atoms: _597  and  _599
REMARK  235  A    between atoms: _599  and  _600
REMARK  236  A    between atoms: _599  and  _602
REMARK  237  A    between atoms: _602  and  _603
REMARK  238  A    between atoms: _605  and  _607
REMARK  239  A    between atoms: _607  and  _608
REMARK  240  A    between atoms: _607  and  _610
REMARK  241  A    between atoms: _610  and  _611
REMARK  242  A    between atoms: _614  and  _616
REMARK  243  A    between atoms: _616  and  _617
REMARK  244  A    between atoms: _616  and  _619
REMARK  245  A    between atoms: _619  and  _620
REMARK  246  A    between atoms: _620  and  _621
REMARK  247  A    between atoms: _624  and  _626
REMARK  248  A    between atoms: _626  and  _627
REMARK  249  A    between atoms: _626  and  _629
REMARK  250  A    between atoms: _629  and  _630
REMARK  251  A    between atoms: _636  and  _638
REMARK  252  A    between atoms: _638  and  _639
REMARK  253  A    between atoms: _641  and  _643
REMARK  254  A    between atoms: _643  and  _644
REMARK  255  A    between atoms: _643  and  _646
REMARK  256  A    between atoms: _646  and  _647
REMARK  257  A    between atoms: _652  and  _653
REMARK  258  A    between atoms: _655  and  _657
REMARK  259  A    between atoms: _657  and  _658
REMARK  260  A    between atoms: _657  and  _660
REMARK  261  A    between atoms: _660  and  _661
REMARK  262  A    between atoms: _666  and  _667
REMARK  263  A    between atoms: _669  and  _671
REMARK  264  A    between atoms: _671  and  _672
REMARK  265  A    between atoms: _671  and  _674
REMARK  266  A    between atoms: _674  and  _675
REMARK  267  A    between atoms: _675  and  _676
REMARK  268  A    between atoms: _676  and  _677
REMARK                            x       y       z     vdW  Elec       q    Type
REMARK                         _______ _______ _______ _____ _____    ______ ____
ROOT
ATOM      1  CG  TYR A   1       1.824  12.654  -2.012  0.00  0.00    -0.020 A 
ATOM      2  CD2 TYR A   1       0.566  12.215  -1.617  0.00  0.00    -0.001 A 
ATOM      3  CE2 TYR A   1      -0.227  11.442  -2.455  0.00  0.00    +0.036 A 
ATOM      4  CZ  TYR A   1       0.238  11.104  -3.712  0.00  0.00    +0.134 A 
ATOM      5  CE1 TYR A   1       1.484  11.535  -4.140  0.00  0.00    +0.036 A 
ATOM      6  CD1 TYR A   1       2.268  12.313  -3.289  0.00  0.00    -0.001 A 
ENDROOT
BRANCH   4   7
ATOM      7  OH  TYR A   1      -0.562  10.336  -4.525  0.00  0.00    -0.506 OA
ATOM      8  HH  TYR A   1      -0.099  10.177  -5.386  0.00  0.00    +0.292 HD
ENDBRANCH   4   7
BRANCH   1   9
ATOM      9  CB  TYR A   1       2.666  13.505  -1.071  0.00  0.00    +0.051 C 
BRANCH   9  10
ATOM     10  CA  TYR A   1       4.187  13.417  -1.280  0.00  0.00    +0.137 C 
BRANCH  10  11
ATOM     11  N   TYR A   1       4.717  12.072  -1.052  0.00  0.00    -0.239 NA
ATOM     12  H   TYR A   1       4.122  11.351  -0.597  0.00  0.00    +0.142 HD
ENDBRANCH  10  11
BRANCH  10  13
ATOM     13  C   TYR A   1       4.902  14.469  -0.439  0.00  0.00    +0.224 C 
ATOM     14  O   TYR A   1       5.184  15.557  -0.939  0.00  0.00    -0.287 OA
ENDBRANCH  10  13
ENDBRANCH   9  10
ENDBRANCH   1   9
TORSDOF 5
REMARK  Name = ../refined-set-2016/3zm9/3zm9_pocket.pdb
REMARK  268 active torsions:
REMARK  status: ('A' for Active; 'I' for Inactive)
REMARK    1  A    between atoms: _1  and  _3
REMARK    2  A    between atoms: _3  and  _4
REMARK    3  A    between atoms: _3  and  _6
REMARK    4  A    between atoms: _6  and  _7
REMARK    5  A    between atoms: _10  and  _12
REMARK    6  A    between atoms: _12  and  _13
REMARK    7  A    between atoms: _12  and  _15
REMARK    8  A    between atoms: _15  and  _16
REMARK    9  A    between atoms: _16  and  _17
REMARK   10  A    between atoms: _17  and  _18
REMARK   11  A    between atoms: _27  and  _29
REMARK   12  A    between atoms: _29  and  _30
REMARK   13  A    between atoms: _29  and  _32
REMARK   14  A    between atoms: _32  and  _33
REMARK   15  A    between atoms: _38  and  _40
REMARK   16  A    between atoms: _40  and  _41
REMARK   17  A    between atoms: _40  and  _43
REMARK   18  A    between atoms: _43  and  _44
REMARK   19  A    between atoms: _47  and  _49
REMARK   20  A    between atoms: _49  and  _50
REMARK   21  A    between atoms: _49  and  _52
REMARK   22  A    between atoms: _52  and  _53
REMARK   23  A    between atoms: _53  and  _54
REMARK   24  A    between atoms: _59  and  _61
REMARK   25  A    between atoms: _61  and  _62
REMARK   26  A    between atoms: _61  and  _64
REMARK   27  A    between atoms: _67  and  _69
REMARK   28  A    between atoms: _69  and  _70
REMARK   29  A    between atoms: _69  and  _72
REMARK   30  A    between atoms: _72  and  _73
REMARK   31  A    between atoms: _76  and  _78
REMARK   32  A    between atoms: _78  and  _79
REMARK   33  A    between atoms: _78  and  _81
REMARK   34  A    between atoms: _81  and  _82
REMARK   35  A    between atoms: _85  and  _87
REMARK   36  A    between atoms: _87  and  _88
REMARK   37  A    between atoms: _87  and  _90
REMARK   38  A    between atoms: _90  and  _91
REMARK   39  A    between atoms: _91  and  _92
REMARK   40  A    between atoms: _92  and  _93
REMARK   41  A    between atoms: _102  and  _104
REMARK   42  A    between atoms: _104  and  _105
REMARK   43  A    between atoms: _104  and  _107
REMARK   44  A    between atoms: _107  and  _108
REMARK   45  A    between atoms: _114  and  _116
REMARK   46  A    between atoms: _116  and  _117
REMARK   47  A    between atoms: _120  and  _121
REMARK   48  A    between atoms: _126  and  _128
REMARK   49  A    between atoms: _128  and  _129
REMARK   50  A    between atoms: _128  and  _131
REMARK   51  A    between atoms: _131  and  _132
REMARK   52  A    between atoms: _132  and  _133
REMARK   53  A    between atoms: _133  and  _134
REMARK   54  A    between atoms: _134  and  _135
REMARK   55  A    between atoms: _139  and  _141
REMARK   56  A    between atoms: _141  and  _142
REMARK   57  A    between atoms: _141  and  _144
REMARK   58  A    between atoms: _144  and  _145
REMARK   59  A    between atoms: _145  and  _146
REMARK   60  A    between atoms: _146  and  _147
REMARK   61  A    between atoms: _156  and  _158
REMARK   62  A    between atoms: _158  and  _159
REMARK   63  A    between atoms: _158  and  _161
REMARK   64  A    between atoms: _161  and  _162
REMARK   65  A    between atoms: _165  and  _167
REMARK   66  A    between atoms: _167  and  _168
REMARK   67  A    between atoms: _167  and  _170
REMARK   68  A    between atoms: _170  and  _171
REMARK   69  A    between atoms: _171  and  _172
REMARK   70  A    between atoms: _175  and  _177
REMARK   71  A    between atoms: _177  and  _178
REMARK   72  A    between atoms: _177  and  _180
REMARK   73  A    between atoms: _180  and  _181
REMARK   74  A    between atoms: _181  and  _182
REMARK   75  A    between atoms: _187  and  _189
REMARK   76  A    between atoms: _189  and  _190
REMARK   77  A    between atoms: _189  and  _192
REMARK   78  A    between atoms: _192  and  _193
REMARK   79  A    between atoms: _199  and  _201
REMARK   80  A    between atoms: _201  and  _202
REMARK   81  A    between atoms: _201  and  _204
REMARK   82  A    between atoms: _204  and  _205
REMARK   83  A    between atoms: _209  and  _210
REMARK   84  A    between atoms: _215  and  _217
REMARK   85  A    between atoms: _217  and  _218
REMARK   86  A    between atoms: _217  and  _220
REMARK   87  A    between atoms: _220  and  _221
REMARK   88  A    between atoms: _223  and  _225
REMARK   89  A    between atoms: _225  and  _226
REMARK   90  A    between atoms: _225  and  _228
REMARK   91  A    between atoms: _228  and  _229
REMARK   92  A    between atoms: _229  and  _230
REMARK   93  A    between atoms: _230  and  _231
REMARK   94  A    between atoms: _240  and  _242
REMARK   95  A    between atoms: _242  and  _243
REMARK   96  A    between atoms: _242  and  _245
REMARK   97  A    between atoms: _245  and  _246
REMARK   98  A    between atoms: _246  and  _247
REMARK   99  A    between atoms: _247  and  _248
REMARK  100  A    between atoms: _257  and  _259
REMARK  101  A    between atoms: _259  and  _260
REMARK  102  A    between atoms: _259  and  _262
REMARK  103  A    between atoms: _262  and  _263
REMARK  104  A    between atoms: _266  and  _268
REMARK  105  A    between atoms: _268  and  _269
REMARK  106  A    between atoms: _268  and  _271
REMARK  107  A    between atoms: _271  and  _272
REMARK  108  A    between atoms: _277  and  _278
REMARK  109  A    between atoms: _280  and  _282
REMARK  110  A    between atoms: _282  and  _283
REMARK  111  A    between atoms: _282  and  _285
REMARK  112  A    between atoms: _285  and  _286
REMARK  113  A    between atoms: _291  and  _293
REMARK  114  A    between atoms: _293  and  _294
REMARK  115  A    between atoms: _293  and  _296
REMARK  116  A    between atoms: _296  and  _297
REMARK  117  A    between atoms: _300  and  _302
REMARK  118  A    between atoms: _302  and  _303
REMARK  119  A    between atoms: _302  and  _305
REMARK  120  A    between atoms: _307  and  _309
REMARK  121  A    between atoms: _309  and  _310
REMARK  122  A    between atoms: _309  and  _312
REMARK  123  A    between atoms: _312  and  _313
REMARK  124  A    between atoms: _313  and  _314
REMARK  125  A    between atoms: _319  and  _321
REMARK  126  A    between atoms: _321  and  _322
REMARK  127  A    between atoms: _321  and  _324
REMARK  128  A    between atoms: _324  and  _325
REMARK  129  A    between atoms: _325  and  _326
REMARK  130  A    between atoms: _329  and  _331
REMARK  131  A    between atoms: _331  and  _332
REMARK  132  A    between atoms: _334  and  _336
REMARK  133  A    between atoms: _336  and  _337
REMARK  134  A    between atoms: _336  and  _339
REMARK  135  A    between atoms: _339  and  _340
REMARK  136  A    between atoms: _345  and  _347
REMARK  137  A    between atoms: _347  and  _348
REMARK  138  A    between atoms: _347  and  _350
REMARK  139  A    between atoms: _350  and  _351
REMARK  140  A    between atoms: _354  and  _356
REMARK  141  A    between atoms: _356  and  _357
REMARK  142  A    between atoms: _356  and  _359
REMARK  143  A    between atoms: _359  and  _360
REMARK  144  A    between atoms: _363  and  _365
REMARK  145  A    between atoms: _365  and  _366
REMARK  146  A    between atoms: _365  and  _368
REMARK  147  A    between atoms: _368  and  _369
REMARK  148  A    between atoms: _369  and  _370
REMARK  149  A    between atoms: _372  and  _374
REMARK  150  A    between atoms: _374  and  _375
REMARK  151  A    between atoms: _374  and  _377
REMARK  152  A    between atoms: _377  and  _378
REMARK  153  A    between atoms: _381  and  _383
REMARK  154  A    between atoms: _383  and  _384
REMARK  155  A    between atoms: _383  and  _386
REMARK  156  A    between atoms: _386  and  _387
REMARK  157  A    between atoms: _390  and  _392
REMARK  158  A    between atoms: _392  and  _393
REMARK  159  A    between atoms: _392  and  _395
REMARK  160  A    between atoms: _395  and  _396
REMARK  161  A    between atoms: _396  and  _397
REMARK  162  A    between atoms: _400  and  _402
REMARK  163  A    between atoms: _402  and  _403
REMARK  164  A    between atoms: _402  and  _405
REMARK  165  A    between atoms: _405  and  _406
REMARK  166  A    between atoms: _411  and  _412
REMARK  167  A    between atoms: _414  and  _416
REMARK  168  A    between atoms: _416  and  _417
REMARK  169  A    between atoms: _416  and  _419
REMARK  170  A    between atoms: _419  and  _420
REMARK  171  A    between atoms: _426  and  _428
REMARK  172  A    between atoms: _428  and  _429
REMARK  173  A    between atoms: _428  and  _431
REMARK  174  A    between atoms: _431  and  _432
REMARK  175  A    between atoms: _437  and  _439
REMARK  176  A    between atoms: _439  and  _440
REMARK  177  A    between atoms: _439  and  _442
REMARK  178  A    between atoms: _442  and  _443
REMARK  179  A    between atoms: _443  and  _444
REMARK  180  A    between atoms: _447  and  _449
REMARK  181  A    between atoms: _449  and  _450
REMARK  182  A    between atoms: _449  and  _452
REMARK  183  A    between atoms: _452  and  _453
REMARK  184  A    between atoms: _458  and  _459
REMARK  185  A    between atoms: _461  and  _463
REMARK  186  A    between atoms: _463  and  _464
REMARK  187  A    between atoms: _463  and  _466
REMARK  188  A    between atoms: _466  and  _467
REMARK  189  A    between atoms: _470  and  _472
REMARK  190  A    between atoms: _472  and  _473
REMARK  191  A    between atoms: _472  and  _475
REMARK  192  A    between atoms: _475  and  _476
REMARK  193  A    between atoms: _481  and  _482
REMARK  194  A    between atoms: _484  and  _486
REMARK  195  A    between atoms: _486  and  _487
REMARK  196  A    between atoms: _486  and  _489
REMARK  197  A    between atoms: _489  and  _490
REMARK  198  A    between atoms: _493  and  _494
REMARK  199  A    between atoms: _499  and  _501
REMARK  200  A    between atoms: _501  and  _502
REMARK  201  A    between atoms: _501  and  _504
REMARK  202  A    between atoms: _504  and  _505
REMARK  203  A    between atoms: _511  and  _513
REMARK  204  A    between atoms: _513  and  _514
REMARK  205  A    between atoms: _513  and  _516
REMARK  206  A    between atoms: _516  and  _517
REMARK  207  A    between atoms: _523  and  _525
REMARK  208  A    between atoms: _525  and  _526
REMARK  209  A    between atoms: _525  and  _528
REMARK  210  A    between atoms: _528  and  _529
REMARK  211  A    between atoms: _531  and  _533
REMARK  212  A    between atoms: _533  and  _534
REMARK  213  A    between atoms: _533  and  _536
REMARK  214  A    between atoms: _536  and  _537
REMARK  215  A    between atoms: _540  and  _542
REMARK  216  A    between atoms: _542  and  _543
REMARK  217  A    between atoms: _542  and  _545
REMARK  218  A    between atoms: _545  and  _546
REMARK  219  A    between atoms: _556  and  _558
REMARK  220  A    between atoms: _558  and  _559
REMARK  221  A    between atoms: _561  and  _563
REMARK  222  A    between atoms: _563  and  _564
REMARK  223  A    between atoms: _563  and  _566
REMARK  224  A    between atoms: _566  and  _567
REMARK  225  A    between atoms: _577  and  _579
REMARK  226  A    between atoms: _579  and  _580
REMARK  227  A    between atoms: _579  and  _582
REMARK  228  A    between atoms: _582  and  _583
REMARK  229  A    between atoms: _585  and  _587
REMARK  230  A    between atoms: _587  and  _588
REMARK  231  A    between atoms: _587  and  _590
REMARK  232  A    between atoms: _590  and  _591
REMARK  233  A    between atoms: _591  and  _592
REMARK  234  A    between atoms: _597  and  _599
REMARK  235  A    between atoms: _599  and  _600
REMARK  236  A    between atoms: _599  and  _602
REMARK  237  A    between atoms: _602  and  _603
REMARK  238  A    between atoms: _605  and  _607
REMARK  239  A    between atoms: _607  and  _608
REMARK  240  A    between atoms: _607  and  _610
REMARK  241  A    between atoms: _610  and  _611
REMARK  242  A    between atoms: _614  and  _616
REMARK  243  A    between atoms: _616  and  _617
REMARK  244  A    between atoms: _616  and  _619
REMARK  245  A    between atoms: _619  and  _620
REMARK  246  A    between atoms: _620  and  _621
REMARK  247  A    between atoms: _624  and  _626
REMARK  248  A    between atoms: _626  and  _627
REMARK  249  A    between atoms: _626  and  _629
REMARK  250  A    between atoms: _629  and  _630
REMARK  251  A    between atoms: _636  and  _638
REMARK  252  A    between atoms: _638  and  _639
REMARK  253  A    between atoms: _641  and  _643
REMARK  254  A    between atoms: _643  and  _644
REMARK  255  A    between atoms: _643  and  _646
REMARK  256  A    between atoms: _646  and  _647
REMARK  257  A    between atoms: _652  and  _653
REMARK  258  A    between atoms: _655  and  _657
REMARK  259  A    between atoms: _657  and  _658
REMARK  260  A    between atoms: _657  and  _660
REMARK  261  A    between atoms: _660  and  _661
REMARK  262  A    between atoms: _666  and  _667
REMARK  263  A    between atoms: _669  and  _671
REMARK  264  A    between atoms: _671  and  _672
REMARK  265  A    between atoms: _671  and  _674
REMARK  266  A    between atoms: _674  and  _675
REMARK  267  A    between atoms: _675  and  _676
REMARK  268  A    between atoms: _676  and  _677
REMARK                            x       y       z     vdW  Elec       q    Type
REMARK                         _______ _______ _______ _____ _____    ______ ____
ROOT
ATOM      1  CA  GLU A   5     -19.688  10.082  -3.944  0.00  0.00    +0.149 C 
ENDROOT
BRANCH   1   2
ATOM      2  C   GLU A   5     -19.541   9.966  -5.477  0.00  0.00    +0.241 C 
ATOM      3  N   GLY A   6     -18.545  10.645  -6.054  0.00  0.00    -0.295 N 
ATOM      4  H   GLY A   6     -17.921  11.228  -5.460  0.00  0.00    +0.150 HD
ATOM      5  O   GLU A   5     -20.326   9.275  -6.115  0.00  0.00    -0.273 OA
BRANCH   3   6
ATOM      6  CA  GLY A   6     -18.307  10.592  -7.503  0.00  0.00    +0.176 C 
BRANCH   6   7
ATOM      7  C   GLY A   6     -17.862   9.227  -8.018  0.00  0.00    +0.243 C 
ATOM      8  N   ASN A   7     -17.472   8.335  -7.110  0.00  0.00    -0.297 N 
ATOM      9  H   ASN A   7     -17.464   8.622  -6.110  0.00  0.00    +0.150 HD
ATOM     10  O   GLY A   6     -17.875   8.994  -9.218  0.00  0.00    -0.273 OA
BRANCH   8  11
ATOM     11  CA  ASN A   7     -17.048   6.955  -7.447  0.00  0.00    +0.158 C 
BRANCH  11  12
ATOM     12  C   ASN A   7     -18.086   5.929  -7.050  0.00  0.00    +0.241 C 
ATOM     13  N   ILE A   8     -19.323   6.403  -6.856  0.00  0.00    -0.297 N 
ATOM     14  H   ILE A   8     -19.499   7.425  -6.940  0.00  0.00    +0.150 HD
ATOM     15  O   ASN A   7     -17.782   4.715  -6.924  0.00  0.00    -0.273 OA
BRANCH  13  16
ATOM     16  CA  ILE A   8     -20.428   5.507  -6.529  0.00  0.00    +0.149 C 
BRANCH  16  17
ATOM     17  C   ILE A   8     -21.548   5.758  -7.524  0.00  0.00    +0.241 C 
ATOM     18  O   ILE A   8     -22.036   6.887  -7.654  0.00  0.00    -0.273 OA
ATOM     19  N   LEU A   9     -21.939   4.705  -8.233  0.00  0.00    -0.298 N 
ATOM     20  H   LEU A   9     -21.462   3.790  -8.103  0.00  0.00    +0.150 HD
BRANCH  19  21
ATOM     21  CA  LEU A   9     -23.033   4.820  -9.194  0.00  0.00    +0.137 C 
BRANCH  21  22
ATOM     22  C   LEU A   9     -24.372   4.411  -8.599  0.00  0.00    +0.227 C 
ATOM     23  O   LEU A   9     -24.492   3.357  -7.986  0.00  0.00    -0.286 OA
ENDBRANCH  21  22
BRANCH  21  24
ATOM     24  CB  LEU A   9     -22.757   4.011 -10.473  0.00  0.00    +0.028 C 
BRANCH  24  25
ATOM     25  CG  LEU A   9     -21.459   4.265 -11.241  0.00  0.00    +0.002 C 
ATOM     26  CD2 LEU A   9     -21.406   5.704 -11.734  0.00  0.00    +0.000 C 
ATOM     27  CD1 LEU A   9     -21.345   3.295 -12.424  0.00  0.00    +0.000 C 
ENDBRANCH  24  25
ENDBRANCH  21  24
ENDBRANCH  19  21
ENDBRANCH  16  17
BRANCH  16  28
ATOM     28  CB  ILE A   8     -20.921   5.622  -5.059  0.00  0.00    +0.027 C 
ATOM     29  CG2 ILE A   8     -21.906   4.487  -4.747  0.00  0.00    +0.002 C 
BRANCH  28  30
ATOM     30  CG1 ILE A   8     -19.735   5.564  -4.087  0.00  0.00    +0.002 C 
ATOM     31  CD1 ILE A   8     -20.031   5.983  -2.651  0.00  0.00    +0.000 C 
ENDBRANCH  28  30
ENDBRANCH  16  28
ENDBRANCH  13  16
ENDBRANCH  11  12
BRANCH  11  32
ATOM     32  CB  ASN A   7     -15.704   6.634  -6.778  0.00  0.00    +0.114 C 
BRANCH  32  33
ATOM     33  CG  ASN A   7     -14.577   7.499  -7.315  0.00  0.00    +0.222 C 
ATOM     34  ND2 ASN A   7     -13.573   7.748  -6.490  0.00  0.00    -0.329 N 
ATOM     35 HD21 ASN A   7     -13.590   7.369  -5.522  0.00  0.00    +0.145 HD
ATOM     36 HD22 ASN A   7     -12.767   8.322  -6.810  0.00  0.00    +0.145 HD
ATOM     37  OD1 ASN A   7     -14.604   7.926  -8.474  0.00  0.00    -0.275 OA
ENDBRANCH  32  33
ENDBRANCH  11  32
ENDBRANCH   8  11
ENDBRANCH   6   7
ENDBRANCH   3   6
ENDBRANCH   1   2
BRANCH   1  39
ATOM     38  C   GLN A   4     -17.452   9.226  -3.375  0.00  0.00    +0.241 C 
ATOM     39  N   GLU A   5     -18.411  10.136  -3.211  0.00  0.00    -0.297 N 
ATOM     40  H   GLU A   5     -18.252  10.914  -2.540  0.00  0.00    +0.150 HD
ATOM     41  O   GLN A   4     -17.531   8.290  -4.198  0.00  0.00    -0.273 OA
BRANCH  38  42
ATOM     42  CA  GLN A   4     -16.203   9.392  -2.508  0.00  0.00    +0.149 C 
BRANCH  42  45
ATOM     43  C   CYS A   3     -15.451   7.309  -1.449  0.00  0.00    +0.242 C 
ATOM     44  O   CYS A   3     -15.901   7.614  -0.331  0.00  0.00    -0.273 OA
ATOM     45  N   GLN A   4     -15.516   8.113  -2.504  0.00  0.00    -0.297 N 
ATOM     46  H   GLN A   4     -15.046   7.808  -3.380  0.00  0.00    +0.150 HD
BRANCH  43  47
ATOM     47  CA  CYS A   3     -14.681   5.986  -1.701  0.00  0.00    +0.160 C 
BRANCH  47  49
ATOM     48  C   ASP A   2     -12.646   6.701  -2.752  0.00  0.00    +0.241 C 
ATOM     49  N   CYS A   3     -13.244   6.219  -1.674  0.00  0.00    -0.296 N 
ATOM     50  H   CYS A   3     -12.693   6.009  -0.817  0.00  0.00    +0.150 HD
ATOM     51  O   ASP A   2     -13.283   6.982  -3.784  0.00  0.00    -0.273 OA
BRANCH  48  52
ATOM     52  CA  ASP A   2     -11.110   6.845  -2.665  0.00  0.00    +0.160 C 
BRANCH  52  55
ATOM     53  C   ASN A   1      -9.414   5.598  -1.408  0.00  0.00    +0.239 C 
ATOM     54  O   ASN A   1      -8.781   6.618  -1.125  0.00  0.00    -0.274 OA
ATOM     55  N   ASP A   2     -10.536   5.607  -2.124  0.00  0.00    -0.297 N 
ATOM     56  H   ASP A   2     -11.023   4.706  -2.306  0.00  0.00    +0.150 HD
BRANCH  53  57
ATOM     57  CA  ASN A   1      -8.923   4.238  -0.919  0.00  0.00    +0.154 C 
BRANCH  57  58
ATOM     58  N   ASN A   1      -9.778   3.069  -1.242  0.00  0.00    -0.238 NA
ATOM     59  H   ASN A   1     -10.383   2.700  -0.481  0.00  0.00    +0.142 HD
ENDBRANCH  57  58
BRANCH  57  60
ATOM     60  CB  ASN A   1      -7.468   4.036  -1.362  0.00  0.00    +0.111 C 
BRANCH  60  61
ATOM     61  CG  ASN A   1      -6.753   3.002  -0.534  0.00  0.00    +0.221 C 
ATOM     62  OD1 ASN A   1      -7.024   2.856   0.669  0.00  0.00    -0.275 OA
ATOM     63  ND2 ASN A   1      -5.829   2.277  -1.164  0.00  0.00    -0.329 N 
ATOM     64 HD21 ASN A   1      -5.297   1.549  -0.646  0.00  0.00    +0.145 HD
ATOM     65 HD22 ASN A   1      -5.640   2.439  -2.174  0.00  0.00    +0.145 HD
ENDBRANCH  60  61
ENDBRANCH  57  60
ENDBRANCH  53  57
ENDBRANCH  52  55
BRANCH  52  66
ATOM     66  CB  ASP A   2     -10.456   7.123  -4.039  0.00  0.00    +0.143 C 
BRANCH  66  67
ATOM     67  CG  ASP A   2     -10.863   8.465  -4.653  0.00  0.00    +0.367 C 
ATOM     68  OD2 ASP A   2     -11.273   9.395  -3.924  0.00  0.00    -0.246 OA
ATOM     69  OD1 ASP A   2     -10.786   8.567  -5.905  0.00  0.00    -0.246 OA
ENDBRANCH  66  67
ENDBRANCH  52  66
ENDBRANCH  48  52
ENDBRANCH  47  49
BRANCH  47  70
ATOM     70  CB  CYS A   3     -15.080   4.859  -0.747  0.00  0.00    +0.098 C 
ATOM     71  SG  CYS A   3     -16.835   4.435  -0.890  0.00  0.00    -0.080 S 
ENDBRANCH  47  70
ENDBRANCH  43  47
ENDBRANCH  42  45
BRANCH  42  72
ATOM     72  CB  GLN A   4     -15.288  10.492  -3.063  0.00  0.00    +0.039 C 
BRANCH  72  73
ATOM     73  CG  GLN A   4     -14.570  10.155  -4.372  0.00  0.00    +0.087 C 
BRANCH  73  74
ATOM     74  CD  GLN A   4     -13.910  11.362  -5.049  0.00  0.00    +0.219 C 
ATOM     75  NE2 GLN A   4     -12.582  11.434  -5.005  0.00  0.00    -0.329 N 
ATOM     76 HE21 GLN A   4     -12.038  10.706  -4.499  0.00  0.00    +0.145 HD
ATOM     77 HE22 GLN A   4     -12.088  12.218  -5.476  0.00  0.00    +0.145 HD
ATOM     78  OE1 GLN A   4     -14.587  12.196  -5.632  0.00  0.00    -0.275 OA
ENDBRANCH  73  74
ENDBRANCH  72  73
ENDBRANCH  42  72
ENDBRANCH  38  42
ENDBRANCH   1  39
BRANCH   1  79
ATOM     79  CB  GLU A   5     -20.594  11.275  -3.563  0.00  0.00    +0.041 C 
BRANCH  79  80
ATOM     80  CG  GLU A   5     -20.030  12.654  -3.909  0.00  0.00    +0.116 C 
BRANCH  80  81
ATOM     81  CD  GLU A   5     -18.985  13.163  -2.906  0.00  0.00    +0.365 C 
ATOM     82  OE2 GLU A   5     -18.648  12.456  -1.939  0.00  0.00    -0.246 OA
ATOM     83  OE1 GLU A   5     -18.477  14.285  -3.109  0.00  0.00    -0.246 OA
ENDBRANCH  80  81
ENDBRANCH  79  80
ENDBRANCH   1  79
TORSDOF 35
REMARK  Name = ../refined-set-2016/3zm9/3zm9_pocket.pdb
REMARK  268 active torsions:
REMARK  status: ('A' for Active; 'I' for Inactive)
REMARK    1  A    between atoms: _1  and  _3
REMARK    2  A    between atoms: _3  and  _4
REMARK    3  A    between atoms: _3  and  _6
REMARK    4  A    between atoms: _6  and  _7
REMARK    5  A    between atoms: _10  and  _12
REMARK    6  A    between atoms: _12  and  _13
REMARK    7  A    between atoms: _12  and  _15
REMARK    8  A    between atoms: _15  and  _16
REMARK    9  A    between atoms: _16  and  _17
REMARK   10  A    between atoms: _17  and  _18
REMARK   11  A    between atoms: _27  and  _29
REMARK   12  A    between atoms: _29  and  _30
REMARK   13  A    between atoms: _29  and  _32
REMARK   14  A    between atoms: _32  and  _33
REMARK   15  A    between atoms: _38  and  _40
REMARK   16  A    between atoms: _40  and  _41
REMARK   17  A    between atoms: _40  and  _43
REMARK   18  A    between atoms: _43  and  _44
REMARK   19  A    between atoms: _47  and  _49
REMARK   20  A    between atoms: _49  and  _50
REMARK   21  A    between atoms: _49  and  _52
REMARK   22  A    between atoms: _52  and  _53
REMARK   23  A    between atoms: _53  and  _54
REMARK   24  A    between atoms: _59  and  _61
REMARK   25  A    between atoms: _61  and  _62
REMARK   26  A    between atoms: _61  and  _64
REMARK   27  A    between atoms: _67  and  _69
REMARK   28  A    between atoms: _69  and  _70
REMARK   29  A    between atoms: _69  and  _72
REMARK   30  A    between atoms: _72  and  _73
REMARK   31  A    between atoms: _76  and  _78
REMARK   32  A    between atoms: _78  and  _79
REMARK   33  A    between atoms: _78  and  _81
REMARK   34  A    between atoms: _81  and  _82
REMARK   35  A    between atoms: _85  and  _87
REMARK   36  A    between atoms: _87  and  _88
REMARK   37  A    between atoms: _87  and  _90
REMARK   38  A    between atoms: _90  and  _91
REMARK   39  A    between atoms: _91  and  _92
REMARK   40  A    between atoms: _92  and  _93
REMARK   41  A    between atoms: _102  and  _104
REMARK   42  A    between atoms: _104  and  _105
REMARK   43  A    between atoms: _104  and  _107
REMARK   44  A    between atoms: _107  and  _108
REMARK   45  A    between atoms: _114  and  _116
REMARK   46  A    between atoms: _116  and  _117
REMARK   47  A    between atoms: _120  and  _121
REMARK   48  A    between atoms: _126  and  _128
REMARK   49  A    between atoms: _128  and  _129
REMARK   50  A    between atoms: _128  and  _131
REMARK   51  A    between atoms: _131  and  _132
REMARK   52  A    between atoms: _132  and  _133
REMARK   53  A    between atoms: _133  and  _134
REMARK   54  A    between atoms: _134  and  _135
REMARK   55  A    between atoms: _139  and  _141
REMARK   56  A    between atoms: _141  and  _142
REMARK   57  A    between atoms: _141  and  _144
REMARK   58  A    between atoms: _144  and  _145
REMARK   59  A    between atoms: _145  and  _146
REMARK   60  A    between atoms: _146  and  _147
REMARK   61  A    between atoms: _156  and  _158
REMARK   62  A    between atoms: _158  and  _159
REMARK   63  A    between atoms: _158  and  _161
REMARK   64  A    between atoms: _161  and  _162
REMARK   65  A    between atoms: _165  and  _167
REMARK   66  A    between atoms: _167  and  _168
REMARK   67  A    between atoms: _167  and  _170
REMARK   68  A    between atoms: _170  and  _171
REMARK   69  A    between atoms: _171  and  _172
REMARK   70  A    between atoms: _175  and  _177
REMARK   71  A    between atoms: _177  and  _178
REMARK   72  A    between atoms: _177  and  _180
REMARK   73  A    between atoms: _180  and  _181
REMARK   74  A    between atoms: _181  and  _182
REMARK   75  A    between atoms: _187  and  _189
REMARK   76  A    between atoms: _189  and  _190
REMARK   77  A    between atoms: _189  and  _192
REMARK   78  A    between atoms: _192  and  _193
REMARK   79  A    between atoms: _199  and  _201
REMARK   80  A    between atoms: _201  and  _202
REMARK   81  A    between atoms: _201  and  _204
REMARK   82  A    between atoms: _204  and  _205
REMARK   83  A    between atoms: _209  and  _210
REMARK   84  A    between atoms: _215  and  _217
REMARK   85  A    between atoms: _217  and  _218
REMARK   86  A    between atoms: _217  and  _220
REMARK   87  A    between atoms: _220  and  _221
REMARK   88  A    between atoms: _223  and  _225
REMARK   89  A    between atoms: _225  and  _226
REMARK   90  A    between atoms: _225  and  _228
REMARK   91  A    between atoms: _228  and  _229
REMARK   92  A    between atoms: _229  and  _230
REMARK   93  A    between atoms: _230  and  _231
REMARK   94  A    between atoms: _240  and  _242
REMARK   95  A    between atoms: _242  and  _243
REMARK   96  A    between atoms: _242  and  _245
REMARK   97  A    between atoms: _245  and  _246
REMARK   98  A    between atoms: _246  and  _247
REMARK   99  A    between atoms: _247  and  _248
REMARK  100  A    between atoms: _257  and  _259
REMARK  101  A    between atoms: _259  and  _260
REMARK  102  A    between atoms: _259  and  _262
REMARK  103  A    between atoms: _262  and  _263
REMARK  104  A    between atoms: _266  and  _268
REMARK  105  A    between atoms: _268  and  _269
REMARK  106  A    between atoms: _268  and  _271
REMARK  107  A    between atoms: _271  and  _272
REMARK  108  A    between atoms: _277  and  _278
REMARK  109  A    between atoms: _280  and  _282
REMARK  110  A    between atoms: _282  and  _283
REMARK  111  A    between atoms: _282  and  _285
REMARK  112  A    between atoms: _285  and  _286
REMARK  113  A    between atoms: _291  and  _293
REMARK  114  A    between atoms: _293  and  _294
REMARK  115  A    between atoms: _293  and  _296
REMARK  116  A    between atoms: _296  and  _297
REMARK  117  A    between atoms: _300  and  _302
REMARK  118  A    between atoms: _302  and  _303
REMARK  119  A    between atoms: _302  and  _305
REMARK  120  A    between atoms: _307  and  _309
REMARK  121  A    between atoms: _309  and  _310
REMARK  122  A    between atoms: _309  and  _312
REMARK  123  A    between atoms: _312  and  _313
REMARK  124  A    between atoms: _313  and  _314
REMARK  125  A    between atoms: _319  and  _321
REMARK  126  A    between atoms: _321  and  _322
REMARK  127  A    between atoms: _321  and  _324
REMARK  128  A    between atoms: _324  and  _325
REMARK  129  A    between atoms: _325  and  _326
REMARK  130  A    between atoms: _329  and  _331
REMARK  131  A    between atoms: _331  and  _332
REMARK  132  A    between atoms: _334  and  _336
REMARK  133  A    between atoms: _336  and  _337
REMARK  134  A    between atoms: _336  and  _339
REMARK  135  A    between atoms: _339  and  _340
REMARK  136  A    between atoms: _345  and  _347
REMARK  137  A    between atoms: _347  and  _348
REMARK  138  A    between atoms: _347  and  _350
REMARK  139  A    between atoms: _350  and  _351
REMARK  140  A    between atoms: _354  and  _356
REMARK  141  A    between atoms: _356  and  _357
REMARK  142  A    between atoms: _356  and  _359
REMARK  143  A    between atoms: _359  and  _360
REMARK  144  A    between atoms: _363  and  _365
REMARK  145  A    between atoms: _365  and  _366
REMARK  146  A    between atoms: _365  and  _368
REMARK  147  A    between atoms: _368  and  _369
REMARK  148  A    between atoms: _369  and  _370
REMARK  149  A    between atoms: _372  and  _374
REMARK  150  A    between atoms: _374  and  _375
REMARK  151  A    between atoms: _374  and  _377
REMARK  152  A    between atoms: _377  and  _378
REMARK  153  A    between atoms: _381  and  _383
REMARK  154  A    between atoms: _383  and  _384
REMARK  155  A    between atoms: _383  and  _386
REMARK  156  A    between atoms: _386  and  _387
REMARK  157  A    between atoms: _390  and  _392
REMARK  158  A    between atoms: _392  and  _393
REMARK  159  A    between atoms: _392  and  _395
REMARK  160  A    between atoms: _395  and  _396
REMARK  161  A    between atoms: _396  and  _397
REMARK  162  A    between atoms: _400  and  _402
REMARK  163  A    between atoms: _402  and  _403
REMARK  164  A    between atoms: _402  and  _405
REMARK  165  A    between atoms: _405  and  _406
REMARK  166  A    between atoms: _411  and  _412
REMARK  167  A    between atoms: _414  and  _416
REMARK  168  A    between atoms: _416  and  _417
REMARK  169  A    between atoms: _416  and  _419
REMARK  170  A    between atoms: _419  and  _420
REMARK  171  A    between atoms: _426  and  _428
REMARK  172  A    between atoms: _428  and  _429
REMARK  173  A    between atoms: _428  and  _431
REMARK  174  A    between atoms: _431  and  _432
REMARK  175  A    between atoms: _437  and  _439
REMARK  176  A    between atoms: _439  and  _440
REMARK  177  A    between atoms: _439  and  _442
REMARK  178  A    between atoms: _442  and  _443
REMARK  179  A    between atoms: _443  and  _444
REMARK  180  A    between atoms: _447  and  _449
REMARK  181  A    between atoms: _449  and  _450
REMARK  182  A    between atoms: _449  and  _452
REMARK  183  A    between atoms: _452  and  _453
REMARK  184  A    between atoms: _458  and  _459
REMARK  185  A    between atoms: _461  and  _463
REMARK  186  A    between atoms: _463  and  _464
REMARK  187  A    between atoms: _463  and  _466
REMARK  188  A    between atoms: _466  and  _467
REMARK  189  A    between atoms: _470  and  _472
REMARK  190  A    between atoms: _472  and  _473
REMARK  191  A    between atoms: _472  and  _475
REMARK  192  A    between atoms: _475  and  _476
REMARK  193  A    between atoms: _481  and  _482
REMARK  194  A    between atoms: _484  and  _486
REMARK  195  A    between atoms: _486  and  _487
REMARK  196  A    between atoms: _486  and  _489
REMARK  197  A    between atoms: _489  and  _490
REMARK  198  A    between atoms: _493  and  _494
REMARK  199  A    between atoms: _499  and  _501
REMARK  200  A    between atoms: _501  and  _502
REMARK  201  A    between atoms: _501  and  _504
REMARK  202  A    between atoms: _504  and  _505
REMARK  203  A    between atoms: _511  and  _513
REMARK  204  A    between atoms: _513  and  _514
REMARK  205  A    between atoms: _513  and  _516
REMARK  206  A    between atoms: _516  and  _517
REMARK  207  A    between atoms: _523  and  _525
REMARK  208  A    between atoms: _525  and  _526
REMARK  209  A    between atoms: _525  and  _528
REMARK  210  A    between atoms: _528  and  _529
REMARK  211  A    between atoms: _531  and  _533
REMARK  212  A    between atoms: _533  and  _534
REMARK  213  A    between atoms: _533  and  _536
REMARK  214  A    between atoms: _536  and  _537
REMARK  215  A    between atoms: _540  and  _542
REMARK  216  A    between atoms: _542  and  _543
REMARK  217  A    between atoms: _542  and  _545
REMARK  218  A    between atoms: _545  and  _546
REMARK  219  A    between atoms: _556  and  _558
REMARK  220  A    between atoms: _558  and  _559
REMARK  221  A    between atoms: _561  and  _563
REMARK  222  A    between atoms: _563  and  _564
REMARK  223  A    between atoms: _563  and  _566
REMARK  224  A    between atoms: _566  and  _567
REMARK  225  A    between atoms: _577  and  _579
REMARK  226  A    between atoms: _579  and  _580
REMARK  227  A    between atoms: _579  and  _582
REMARK  228  A    between atoms: _582  and  _583
REMARK  229  A    between atoms: _585  and  _587
REMARK  230  A    between atoms: _587  and  _588
REMARK  231  A    between atoms: _587  and  _590
REMARK  232  A    between atoms: _590  and  _591
REMARK  233  A    between atoms: _591  and  _592
REMARK  234  A    between atoms: _597  and  _599
REMARK  235  A    between atoms: _599  and  _600
REMARK  236  A    between atoms: _599  and  _602
REMARK  237  A    between atoms: _602  and  _603
REMARK  238  A    between atoms: _605  and  _607
REMARK  239  A    between atoms: _607  and  _608
REMARK  240  A    between atoms: _607  and  _610
REMARK  241  A    between atoms: _610  and  _611
REMARK  242  A    between atoms: _614  and  _616
REMARK  243  A    between atoms: _616  and  _617
REMARK  244  A    between atoms: _616  and  _619
REMARK  245  A    between atoms: _619  and  _620
REMARK  246  A    between atoms: _620  and  _621
REMARK  247  A    between atoms: _624  and  _626
REMARK  248  A    between atoms: _626  and  _627
REMARK  249  A    between atoms: _626  and  _629
REMARK  250  A    between atoms: _629  and  _630
REMARK  251  A    between atoms: _636  and  _638
REMARK  252  A    between atoms: _638  and  _639
REMARK  253  A    between atoms: _641  and  _643
REMARK  254  A    between atoms: _643  and  _644
REMARK  255  A    between atoms: _643  and  _646
REMARK  256  A    between atoms: _646  and  _647
REMARK  257  A    between atoms: _652  and  _653
REMARK  258  A    between atoms: _655  and  _657
REMARK  259  A    between atoms: _657  and  _658
REMARK  260  A    between atoms: _657  and  _660
REMARK  261  A    between atoms: _660  and  _661
REMARK  262  A    between atoms: _666  and  _667
REMARK  263  A    between atoms: _669  and  _671
REMARK  264  A    between atoms: _671  and  _672
REMARK  265  A    between atoms: _671  and  _674
REMARK  266  A    between atoms: _674  and  _675
REMARK  267  A    between atoms: _675  and  _676
REMARK  268  A    between atoms: _676  and  _677
REMARK                            x       y       z     vdW  Elec       q    Type
REMARK                         _______ _______ _______ _____ _____    ______ ____
ROOT
ATOM      1  CA  MET A   1     -21.867   0.080  -7.696  0.00  0.00    +0.134 C 
ENDROOT
BRANCH   1   2
ATOM      2  N   MET A   1     -23.123   0.693  -7.267  0.00  0.00    -0.239 NA
ATOM      3  H   MET A   1     -23.271   1.700  -7.480  0.00  0.00    +0.142 HD
ENDBRANCH   1   2
BRANCH   1   4
ATOM      4  C   MET A   1     -20.738   1.070  -7.407  0.00  0.00    +0.224 C 
ATOM      5  O   MET A   1     -20.810   2.228  -7.828  0.00  0.00    -0.287 OA
ENDBRANCH   1   4
BRANCH   1   6
ATOM      6  CB  MET A   1     -21.882  -0.218  -9.198  0.00  0.00    +0.037 C 
BRANCH   6   7
ATOM      7  CG  MET A   1     -20.616  -0.929  -9.690  0.00  0.00    +0.059 C 
BRANCH   7   8
ATOM      8  SD  MET A   1     -20.508  -1.199 -11.476  0.00  0.00    -0.139 S 
ATOM      9  CE  MET A   1     -21.891  -2.315 -11.761  0.00  0.00    +0.069 C 
ENDBRANCH   7   8
ENDBRANCH   6   7
ENDBRANCH   1   6
TORSDOF 5
REMARK  Name = ../refined-set-2016/3zm9/3zm9_pocket.pdb
REMARK  268 active torsions:
REMARK  status: ('A' for Active; 'I' for Inactive)
REMARK    1  A    between atoms: _1  and  _3
REMARK    2  A    between atoms: _3  and  _4
REMARK    3  A    between atoms: _3  and  _6
REMARK    4  A    between atoms: _6  and  _7
REMARK    5  A    between atoms: _10  and  _12
REMARK    6  A    between atoms: _12  and  _13
REMARK    7  A    between atoms: _12  and  _15
REMARK    8  A    between atoms: _15  and  _16
REMARK    9  A    between atoms: _16  and  _17
REMARK   10  A    between atoms: _17  and  _18
REMARK   11  A    between atoms: _27  and  _29
REMARK   12  A    between atoms: _29  and  _30
REMARK   13  A    between atoms: _29  and  _32
REMARK   14  A    between atoms: _32  and  _33
REMARK   15  A    between atoms: _38  and  _40
REMARK   16  A    between atoms: _40  and  _41
REMARK   17  A    between atoms: _40  and  _43
REMARK   18  A    between atoms: _43  and  _44
REMARK   19  A    between atoms: _47  and  _49
REMARK   20  A    between atoms: _49  and  _50
REMARK   21  A    between atoms: _49  and  _52
REMARK   22  A    between atoms: _52  and  _53
REMARK   23  A    between atoms: _53  and  _54
REMARK   24  A    between atoms: _59  and  _61
REMARK   25  A    between atoms: _61  and  _62
REMARK   26  A    between atoms: _61  and  _64
REMARK   27  A    between atoms: _67  and  _69
REMARK   28  A    between atoms: _69  and  _70
REMARK   29  A    between atoms: _69  and  _72
REMARK   30  A    between atoms: _72  and  _73
REMARK   31  A    between atoms: _76  and  _78
REMARK   32  A    between atoms: _78  and  _79
REMARK   33  A    between atoms: _78  and  _81
REMARK   34  A    between atoms: _81  and  _82
REMARK   35  A    between atoms: _85  and  _87
REMARK   36  A    between atoms: _87  and  _88
REMARK   37  A    between atoms: _87  and  _90
REMARK   38  A    between atoms: _90  and  _91
REMARK   39  A    between atoms: _91  and  _92
REMARK   40  A    between atoms: _92  and  _93
REMARK   41  A    between atoms: _102  and  _104
REMARK   42  A    between atoms: _104  and  _105
REMARK   43  A    between atoms: _104  and  _107
REMARK   44  A    between atoms: _107  and  _108
REMARK   45  A    between atoms: _114  and  _116
REMARK   46  A    between atoms: _116  and  _117
REMARK   47  A    between atoms: _120  and  _121
REMARK   48  A    between atoms: _126  and  _128
REMARK   49  A    between atoms: _128  and  _129
REMARK   50  A    between atoms: _128  and  _131
REMARK   51  A    between atoms: _131  and  _132
REMARK   52  A    between atoms: _132  and  _133
REMARK   53  A    between atoms: _133  and  _134
REMARK   54  A    between atoms: _134  and  _135
REMARK   55  A    between atoms: _139  and  _141
REMARK   56  A    between atoms: _141  and  _142
REMARK   57  A    between atoms: _141  and  _144
REMARK   58  A    between atoms: _144  and  _145
REMARK   59  A    between atoms: _145  and  _146
REMARK   60  A    between atoms: _146  and  _147
REMARK   61  A    between atoms: _156  and  _158
REMARK   62  A    between atoms: _158  and  _159
REMARK   63  A    between atoms: _158  and  _161
REMARK   64  A    between atoms: _161  and  _162
REMARK   65  A    between atoms: _165  and  _167
REMARK   66  A    between atoms: _167  and  _168
REMARK   67  A    between atoms: _167  and  _170
REMARK   68  A    between atoms: _170  and  _171
REMARK   69  A    between atoms: _171  and  _172
REMARK   70  A    between atoms: _175  and  _177
REMARK   71  A    between atoms: _177  and  _178
REMARK   72  A    between atoms: _177  and  _180
REMARK   73  A    between atoms: _180  and  _181
REMARK   74  A    between atoms: _181  and  _182
REMARK   75  A    between atoms: _187  and  _189
REMARK   76  A    between atoms: _189  and  _190
REMARK   77  A    between atoms: _189  and  _192
REMARK   78  A    between atoms: _192  and  _193
REMARK   79  A    between atoms: _199  and  _201
REMARK   80  A    between atoms: _201  and  _202
REMARK   81  A    between atoms: _201  and  _204
REMARK   82  A    between atoms: _204  and  _205
REMARK   83  A    between atoms: _209  and  _210
REMARK   84  A    between atoms: _215  and  _217
REMARK   85  A    between atoms: _217  and  _218
REMARK   86  A    between atoms: _217  and  _220
REMARK   87  A    between atoms: _220  and  _221
REMARK   88  A    between atoms: _223  and  _225
REMARK   89  A    between atoms: _225  and  _226
REMARK   90  A    between atoms: _225  and  _228
REMARK   91  A    between atoms: _228  and  _229
REMARK   92  A    between atoms: _229  and  _230
REMARK   93  A    between atoms: _230  and  _231
REMARK   94  A    between atoms: _240  and  _242
REMARK   95  A    between atoms: _242  and  _243
REMARK   96  A    between atoms: _242  and  _245
REMARK   97  A    between atoms: _245  and  _246
REMARK   98  A    between atoms: _246  and  _247
REMARK   99  A    between atoms: _247  and  _248
REMARK  100  A    between atoms: _257  and  _259
REMARK  101  A    between atoms: _259  and  _260
REMARK  102  A    between atoms: _259  and  _262
REMARK  103  A    between atoms: _262  and  _263
REMARK  104  A    between atoms: _266  and  _268
REMARK  105  A    between atoms: _268  and  _269
REMARK  106  A    between atoms: _268  and  _271
REMARK  107  A    between atoms: _271  and  _272
REMARK  108  A    between atoms: _277  and  _278
REMARK  109  A    between atoms: _280  and  _282
REMARK  110  A    between atoms: _282  and  _283
REMARK  111  A    between atoms: _282  and  _285
REMARK  112  A    between atoms: _285  and  _286
REMARK  113  A    between atoms: _291  and  _293
REMARK  114  A    between atoms: _293  and  _294
REMARK  115  A    between atoms: _293  and  _296
REMARK  116  A    between atoms: _296  and  _297
REMARK  117  A    between atoms: _300  and  _302
REMARK  118  A    between atoms: _302  and  _303
REMARK  119  A    between atoms: _302  and  _305
REMARK  120  A    between atoms: _307  and  _309
REMARK  121  A    between atoms: _309  and  _310
REMARK  122  A    between atoms: _309  and  _312
REMARK  123  A    between atoms: _312  and  _313
REMARK  124  A    between atoms: _313  and  _314
REMARK  125  A    between atoms: _319  and  _321
REMARK  126  A    between atoms: _321  and  _322
REMARK  127  A    between atoms: _321  and  _324
REMARK  128  A    between atoms: _324  and  _325
REMARK  129  A    between atoms: _325  and  _326
REMARK  130  A    between atoms: _329  and  _331
REMARK  131  A    between atoms: _331  and  _332
REMARK  132  A    between atoms: _334  and  _336
REMARK  133  A    between atoms: _336  and  _337
REMARK  134  A    between atoms: _336  and  _339
REMARK  135  A    between atoms: _339  and  _340
REMARK  136  A    between atoms: _345  and  _347
REMARK  137  A    between atoms: _347  and  _348
REMARK  138  A    between atoms: _347  and  _350
REMARK  139  A    between atoms: _350  and  _351
REMARK  140  A    between atoms: _354  and  _356
REMARK  141  A    between atoms: _356  and  _357
REMARK  142  A    between atoms: _356  and  _359
REMARK  143  A    between atoms: _359  and  _360
REMARK  144  A    between atoms: _363  and  _365
REMARK  145  A    between atoms: _365  and  _366
REMARK  146  A    between atoms: _365  and  _368
REMARK  147  A    between atoms: _368  and  _369
REMARK  148  A    between atoms: _369  and  _370
REMARK  149  A    between atoms: _372  and  _374
REMARK  150  A    between atoms: _374  and  _375
REMARK  151  A    between atoms: _374  and  _377
REMARK  152  A    between atoms: _377  and  _378
REMARK  153  A    between atoms: _381  and  _383
REMARK  154  A    between atoms: _383  and  _384
REMARK  155  A    between atoms: _383  and  _386
REMARK  156  A    between atoms: _386  and  _387
REMARK  157  A    between atoms: _390  and  _392
REMARK  158  A    between atoms: _392  and  _393
REMARK  159  A    between atoms: _392  and  _395
REMARK  160  A    between atoms: _395  and  _396
REMARK  161  A    between atoms: _396  and  _397
REMARK  162  A    between atoms: _400  and  _402
REMARK  163  A    between atoms: _402  and  _403
REMARK  164  A    between atoms: _402  and  _405
REMARK  165  A    between atoms: _405  and  _406
REMARK  166  A    between atoms: _411  and  _412
REMARK  167  A    between atoms: _414  and  _416
REMARK  168  A    between atoms: _416  and  _417
REMARK  169  A    between atoms: _416  and  _419
REMARK  170  A    between atoms: _419  and  _420
REMARK  171  A    between atoms: _426  and  _428
REMARK  172  A    between atoms: _428  and  _429
REMARK  173  A    between atoms: _428  and  _431
REMARK  174  A    between atoms: _431  and  _432
REMARK  175  A    between atoms: _437  and  _439
REMARK  176  A    between atoms: _439  and  _440
REMARK  177  A    between atoms: _439  and  _442
REMARK  178  A    between atoms: _442  and  _443
REMARK  179  A    between atoms: _443  and  _444
REMARK  180  A    between atoms: _447  and  _449
REMARK  181  A    between atoms: _449  and  _450
REMARK  182  A    between atoms: _449  and  _452
REMARK  183  A    between atoms: _452  and  _453
REMARK  184  A    between atoms: _458  and  _459
REMARK  185  A    between atoms: _461  and  _463
REMARK  186  A    between atoms: _463  and  _464
REMARK  187  A    between atoms: _463  and  _466
REMARK  188  A    between atoms: _466  and  _467
REMARK  189  A    between atoms: _470  and  _472
REMARK  190  A    between atoms: _472  and  _473
REMARK  191  A    between atoms: _472  and  _475
REMARK  192  A    between atoms: _475  and  _476
REMARK  193  A    between atoms: _481  and  _482
REMARK  194  A    between atoms: _484  and  _486
REMARK  195  A    between atoms: _486  and  _487
REMARK  196  A    between atoms: _486  and  _489
REMARK  197  A    between atoms: _489  and  _490
REMARK  198  A    between atoms: _493  and  _494
REMARK  199  A    between atoms: _499  and  _501
REMARK  200  A    between atoms: _501  and  _502
REMARK  201  A    between atoms: _501  and  _504
REMARK  202  A    between atoms: _504  and  _505
REMARK  203  A    between atoms: _511  and  _513
REMARK  204  A    between atoms: _513  and  _514
REMARK  205  A    between atoms: _513  and  _516
REMARK  206  A    between atoms: _516  and  _517
REMARK  207  A    between atoms: _523  and  _525
REMARK  208  A    between atoms: _525  and  _526
REMARK  209  A    between atoms: _525  and  _528
REMARK  210  A    between atoms: _528  and  _529
REMARK  211  A    between atoms: _531  and  _533
REMARK  212  A    between atoms: _533  and  _534
REMARK  213  A    between atoms: _533  and  _536
REMARK  214  A    between atoms: _536  and  _537
REMARK  215  A    between atoms: _540  and  _542
REMARK  216  A    between atoms: _542  and  _543
REMARK  217  A    between atoms: _542  and  _545
REMARK  218  A    between atoms: _545  and  _546
REMARK  219  A    between atoms: _556  and  _558
REMARK  220  A    between atoms: _558  and  _559
REMARK  221  A    between atoms: _561  and  _563
REMARK  222  A    between atoms: _563  and  _564
REMARK  223  A    between atoms: _563  and  _566
REMARK  224  A    between atoms: _566  and  _567
REMARK  225  A    between atoms: _577  and  _579
REMARK  226  A    between atoms: _579  and  _580
REMARK  227  A    between atoms: _579  and  _582
REMARK  228  A    between atoms: _582  and  _583
REMARK  229  A    between atoms: _585  and  _587
REMARK  230  A    between atoms: _587  and  _588
REMARK  231  A    between atoms: _587  and  _590
REMARK  232  A    between atoms: _590  and  _591
REMARK  233  A    between atoms: _591  and  _592
REMARK  234  A    between atoms: _597  and  _599
REMARK  235  A    between atoms: _599  and  _600
REMARK  236  A    between atoms: _599  and  _602
REMARK  237  A    between atoms: _602  and  _603
REMARK  238  A    between atoms: _605  and  _607
REMARK  239  A    between atoms: _607  and  _608
REMARK  240  A    between atoms: _607  and  _610
REMARK  241  A    between atoms: _610  and  _611
REMARK  242  A    between atoms: _614  and  _616
REMARK  243  A    between atoms: _616  and  _617
REMARK  244  A    between atoms: _616  and  _619
REMARK  245  A    between atoms: _619  and  _620
REMARK  246  A    between atoms: _620  and  _621
REMARK  247  A    between atoms: _624  and  _626
REMARK  248  A    between atoms: _626  and  _627
REMARK  249  A    between atoms: _626  and  _629
REMARK  250  A    between atoms: _629  and  _630
REMARK  251  A    between atoms: _636  and  _638
REMARK  252  A    between atoms: _638  and  _639
REMARK  253  A    between atoms: _641  and  _643
REMARK  254  A    between atoms: _643  and  _644
REMARK  255  A    between atoms: _643  and  _646
REMARK  256  A    between atoms: _646  and  _647
REMARK  257  A    between atoms: _652  and  _653
REMARK  258  A    between atoms: _655  and  _657
REMARK  259  A    between atoms: _657  and  _658
REMARK  260  A    between atoms: _657  and  _660
REMARK  261  A    between atoms: _660  and  _661
REMARK  262  A    between atoms: _666  and  _667
REMARK  263  A    between atoms: _669  and  _671
REMARK  264  A    between atoms: _671  and  _672
REMARK  265  A    between atoms: _671  and  _674
REMARK  266  A    between atoms: _674  and  _675
REMARK  267  A    between atoms: _675  and  _676
REMARK  268  A    between atoms: _676  and  _677
REMARK                            x       y       z     vdW  Elec       q    Type
REMARK                         _______ _______ _______ _____ _____    ______ ____
ROOT
ATOM      1  C   ILE A   1     -14.861   3.052  -9.131  0.00  0.00    +0.238 C 
ATOM      2  O   ILE A   1     -14.662   3.570  -8.032  0.00  0.00    -0.274 OA
ATOM      3  N   ASP A   2     -13.987   3.127 -10.146  0.00  0.00    -0.298 N 
ATOM      4  H   ASP A   2     -14.181   2.580 -11.009  0.00  0.00    +0.150 HD
ENDROOT
BRANCH   1   5
ATOM      5  CA  ILE A   1     -16.161   2.278  -9.392  0.00  0.00    +0.145 C 
BRANCH   5   6
ATOM      6  N   ILE A   1     -17.052   2.288  -8.233  0.00  0.00    -0.238 NA
ATOM      7  H   ILE A   1     -17.270   3.202  -7.786  0.00  0.00    +0.142 HD
ENDBRANCH   5   6
BRANCH   5   8
ATOM      8  CB  ILE A   1     -16.855   2.886 -10.636  0.00  0.00    +0.025 C 
ATOM      9  CG2 ILE A   1     -18.060   2.038 -11.034  0.00  0.00    +0.002 C 
BRANCH   8  10
ATOM     10  CG1 ILE A   1     -17.261   4.344 -10.386  0.00  0.00    +0.002 C 
ATOM     11  CD1 ILE A   1     -17.475   5.144 -11.654  0.00  0.00    +0.000 C 
ENDBRANCH   8  10
ENDBRANCH   5   8
ENDBRANCH   1   5
BRANCH   3  12
ATOM     12  CA  ASP A   2     -12.778   3.940 -10.095  0.00  0.00    +0.148 C 
BRANCH  12  13
ATOM     13  C   ASP A   2     -11.799   3.444  -9.021  0.00  0.00    +0.227 C 
ATOM     14  O   ASP A   2     -11.547   4.099  -8.003  0.00  0.00    -0.286 OA
ENDBRANCH  12  13
BRANCH  12  15
ATOM     15  CB  ASP A   2     -13.112   5.431  -9.904  0.00  0.00    +0.142 C 
BRANCH  15  16
ATOM     16  CG  ASP A   2     -13.792   6.072 -11.148  0.00  0.00    +0.367 C 
ATOM     17  OD2 ASP A   2     -14.328   7.197 -11.008  0.00  0.00    -0.246 OA
ATOM     18  OD1 ASP A   2     -13.803   5.482 -12.247  0.00  0.00    -0.246 OA
ENDBRANCH  15  16
ENDBRANCH  12  15
ENDBRANCH   3  12
TORSDOF 8
REMARK  Name = ../refined-set-2016/3zm9/3zm9_pocket.pdb
REMARK  268 active torsions:
REMARK  status: ('A' for Active; 'I' for Inactive)
REMARK    1  A    between atoms: _1  and  _3
REMARK    2  A    between atoms: _3  and  _4
REMARK    3  A    between atoms: _3  and  _6
REMARK    4  A    between atoms: _6  and  _7
REMARK    5  A    between atoms: _10  and  _12
REMARK    6  A    between atoms: _12  and  _13
REMARK    7  A    between atoms: _12  and  _15
REMARK    8  A    between atoms: _15  and  _16
REMARK    9  A    between atoms: _16  and  _17
REMARK   10  A    between atoms: _17  and  _18
REMARK   11  A    between atoms: _27  and  _29
REMARK   12  A    between atoms: _29  and  _30
REMARK   13  A    between atoms: _29  and  _32
REMARK   14  A    between atoms: _32  and  _33
REMARK   15  A    between atoms: _38  and  _40
REMARK   16  A    between atoms: _40  and  _41
REMARK   17  A    between atoms: _40  and  _43
REMARK   18  A    between atoms: _43  and  _44
REMARK   19  A    between atoms: _47  and  _49
REMARK   20  A    between atoms: _49  and  _50
REMARK   21  A    between atoms: _49  and  _52
REMARK   22  A    between atoms: _52  and  _53
REMARK   23  A    between atoms: _53  and  _54
REMARK   24  A    between atoms: _59  and  _61
REMARK   25  A    between atoms: _61  and  _62
REMARK   26  A    between atoms: _61  and  _64
REMARK   27  A    between atoms: _67  and  _69
REMARK   28  A    between atoms: _69  and  _70
REMARK   29  A    between atoms: _69  and  _72
REMARK   30  A    between atoms: _72  and  _73
REMARK   31  A    between atoms: _76  and  _78
REMARK   32  A    between atoms: _78  and  _79
REMARK   33  A    between atoms: _78  and  _81
REMARK   34  A    between atoms: _81  and  _82
REMARK   35  A    between atoms: _85  and  _87
REMARK   36  A    between atoms: _87  and  _88
REMARK   37  A    between atoms: _87  and  _90
REMARK   38  A    between atoms: _90  and  _91
REMARK   39  A    between atoms: _91  and  _92
REMARK   40  A    between atoms: _92  and  _93
REMARK   41  A    between atoms: _102  and  _104
REMARK   42  A    between atoms: _104  and  _105
REMARK   43  A    between atoms: _104  and  _107
REMARK   44  A    between atoms: _107  and  _108
REMARK   45  A    between atoms: _114  and  _116
REMARK   46  A    between atoms: _116  and  _117
REMARK   47  A    between atoms: _120  and  _121
REMARK   48  A    between atoms: _126  and  _128
REMARK   49  A    between atoms: _128  and  _129
REMARK   50  A    between atoms: _128  and  _131
REMARK   51  A    between atoms: _131  and  _132
REMARK   52  A    between atoms: _132  and  _133
REMARK   53  A    between atoms: _133  and  _134
REMARK   54  A    between atoms: _134  and  _135
REMARK   55  A    between atoms: _139  and  _141
REMARK   56  A    between atoms: _141  and  _142
REMARK   57  A    between atoms: _141  and  _144
REMARK   58  A    between atoms: _144  and  _145
REMARK   59  A    between atoms: _145  and  _146
REMARK   60  A    between atoms: _146  and  _147
REMARK   61  A    between atoms: _156  and  _158
REMARK   62  A    between atoms: _158  and  _159
REMARK   63  A    between atoms: _158  and  _161
REMARK   64  A    between atoms: _161  and  _162
REMARK   65  A    between atoms: _165  and  _167
REMARK   66  A    between atoms: _167  and  _168
REMARK   67  A    between atoms: _167  and  _170
REMARK   68  A    between atoms: _170  and  _171
REMARK   69  A    between atoms: _171  and  _172
REMARK   70  A    between atoms: _175  and  _177
REMARK   71  A    between atoms: _177  and  _178
REMARK   72  A    between atoms: _177  and  _180
REMARK   73  A    between atoms: _180  and  _181
REMARK   74  A    between atoms: _181  and  _182
REMARK   75  A    between atoms: _187  and  _189
REMARK   76  A    between atoms: _189  and  _190
REMARK   77  A    between atoms: _189  and  _192
REMARK   78  A    between atoms: _192  and  _193
REMARK   79  A    between atoms: _199  and  _201
REMARK   80  A    between atoms: _201  and  _202
REMARK   81  A    between atoms: _201  and  _204
REMARK   82  A    between atoms: _204  and  _205
REMARK   83  A    between atoms: _209  and  _210
REMARK   84  A    between atoms: _215  and  _217
REMARK   85  A    between atoms: _217  and  _218
REMARK   86  A    between atoms: _217  and  _220
REMARK   87  A    between atoms: _220  and  _221
REMARK   88  A    between atoms: _223  and  _225
REMARK   89  A    between atoms: _225  and  _226
REMARK   90  A    between atoms: _225  and  _228
REMARK   91  A    between atoms: _228  and  _229
REMARK   92  A    between atoms: _229  and  _230
REMARK   93  A    between atoms: _230  and  _231
REMARK   94  A    between atoms: _240  and  _242
REMARK   95  A    between atoms: _242  and  _243
REMARK   96  A    between atoms: _242  and  _245
REMARK   97  A    between atoms: _245  and  _246
REMARK   98  A    between atoms: _246  and  _247
REMARK   99  A    between atoms: _247  and  _248
REMARK  100  A    between atoms: _257  and  _259
REMARK  101  A    between atoms: _259  and  _260
REMARK  102  A    between atoms: _259  and  _262
REMARK  103  A    between atoms: _262  and  _263
REMARK  104  A    between atoms: _266  and  _268
REMARK  105  A    between atoms: _268  and  _269
REMARK  106  A    between atoms: _268  and  _271
REMARK  107  A    between atoms: _271  and  _272
REMARK  108  A    between atoms: _277  and  _278
REMARK  109  A    between atoms: _280  and  _282
REMARK  110  A    between atoms: _282  and  _283
REMARK  111  A    between atoms: _282  and  _285
REMARK  112  A    between atoms: _285  and  _286
REMARK  113  A    between atoms: _291  and  _293
REMARK  114  A    between atoms: _293  and  _294
REMARK  115  A    between atoms: _293  and  _296
REMARK  116  A    between atoms: _296  and  _297
REMARK  117  A    between atoms: _300  and  _302
REMARK  118  A    between atoms: _302  and  _303
REMARK  119  A    between atoms: _302  and  _305
REMARK  120  A    between atoms: _307  and  _309
REMARK  121  A    between atoms: _309  and  _310
REMARK  122  A    between atoms: _309  and  _312
REMARK  123  A    between atoms: _312  and  _313
REMARK  124  A    between atoms: _313  and  _314
REMARK  125  A    between atoms: _319  and  _321
REMARK  126  A    between atoms: _321  and  _322
REMARK  127  A    between atoms: _321  and  _324
REMARK  128  A    between atoms: _324  and  _325
REMARK  129  A    between atoms: _325  and  _326
REMARK  130  A    between atoms: _329  and  _331
REMARK  131  A    between atoms: _331  and  _332
REMARK  132  A    between atoms: _334  and  _336
REMARK  133  A    between atoms: _336  and  _337
REMARK  134  A    between atoms: _336  and  _339
REMARK  135  A    between atoms: _339  and  _340
REMARK  136  A    between atoms: _345  and  _347
REMARK  137  A    between atoms: _347  and  _348
REMARK  138  A    between atoms: _347  and  _350
REMARK  139  A    between atoms: _350  and  _351
REMARK  140  A    between atoms: _354  and  _356
REMARK  141  A    between atoms: _356  and  _357
REMARK  142  A    between atoms: _356  and  _359
REMARK  143  A    between atoms: _359  and  _360
REMARK  144  A    between atoms: _363  and  _365
REMARK  145  A    between atoms: _365  and  _366
REMARK  146  A    between atoms: _365  and  _368
REMARK  147  A    between atoms: _368  and  _369
REMARK  148  A    between atoms: _369  and  _370
REMARK  149  A    between atoms: _372  and  _374
REMARK  150  A    between atoms: _374  and  _375
REMARK  151  A    between atoms: _374  and  _377
REMARK  152  A    between atoms: _377  and  _378
REMARK  153  A    between atoms: _381  and  _383
REMARK  154  A    between atoms: _383  and  _384
REMARK  155  A    between atoms: _383  and  _386
REMARK  156  A    between atoms: _386  and  _387
REMARK  157  A    between atoms: _390  and  _392
REMARK  158  A    between atoms: _392  and  _393
REMARK  159  A    between atoms: _392  and  _395
REMARK  160  A    between atoms: _395  and  _396
REMARK  161  A    between atoms: _396  and  _397
REMARK  162  A    between atoms: _400  and  _402
REMARK  163  A    between atoms: _402  and  _403
REMARK  164  A    between atoms: _402  and  _405
REMARK  165  A    between atoms: _405  and  _406
REMARK  166  A    between atoms: _411  and  _412
REMARK  167  A    between atoms: _414  and  _416
REMARK  168  A    between atoms: _416  and  _417
REMARK  169  A    between atoms: _416  and  _419
REMARK  170  A    between atoms: _419  and  _420
REMARK  171  A    between atoms: _426  and  _428
REMARK  172  A    between atoms: _428  and  _429
REMARK  173  A    between atoms: _428  and  _431
REMARK  174  A    between atoms: _431  and  _432
REMARK  175  A    between atoms: _437  and  _439
REMARK  176  A    between atoms: _439  and  _440
REMARK  177  A    between atoms: _439  and  _442
REMARK  178  A    between atoms: _442  and  _443
REMARK  179  A    between atoms: _443  and  _444
REMARK  180  A    between atoms: _447  and  _449
REMARK  181  A    between atoms: _449  and  _450
REMARK  182  A    between atoms: _449  and  _452
REMARK  183  A    between atoms: _452  and  _453
REMARK  184  A    between atoms: _458  and  _459
REMARK  185  A    between atoms: _461  and  _463
REMARK  186  A    between atoms: _463  and  _464
REMARK  187  A    between atoms: _463  and  _466
REMARK  188  A    between atoms: _466  and  _467
REMARK  189  A    between atoms: _470  and  _472
REMARK  190  A    between atoms: _472  and  _473
REMARK  191  A    between atoms: _472  and  _475
REMARK  192  A    between atoms: _475  and  _476
REMARK  193  A    between atoms: _481  and  _482
REMARK  194  A    between atoms: _484  and  _486
REMARK  195  A    between atoms: _486  and  _487
REMARK  196  A    between atoms: _486  and  _489
REMARK  197  A    between atoms: _489  and  _490
REMARK  198  A    between atoms: _493  and  _494
REMARK  199  A    between atoms: _499  and  _501
REMARK  200  A    between atoms: _501  and  _502
REMARK  201  A    between atoms: _501  and  _504
REMARK  202  A    between atoms: _504  and  _505
REMARK  203  A    between atoms: _511  and  _513
REMARK  204  A    between atoms: _513  and  _514
REMARK  205  A    between atoms: _513  and  _516
REMARK  206  A    between atoms: _516  and  _517
REMARK  207  A    between atoms: _523  and  _525
REMARK  208  A    between atoms: _525  and  _526
REMARK  209  A    between atoms: _525  and  _528
REMARK  210  A    between atoms: _528  and  _529
REMARK  211  A    between atoms: _531  and  _533
REMARK  212  A    between atoms: _533  and  _534
REMARK  213  A    between atoms: _533  and  _536
REMARK  214  A    between atoms: _536  and  _537
REMARK  215  A    between atoms: _540  and  _542
REMARK  216  A    between atoms: _542  and  _543
REMARK  217  A    between atoms: _542  and  _545
REMARK  218  A    between atoms: _545  and  _546
REMARK  219  A    between atoms: _556  and  _558
REMARK  220  A    between atoms: _558  and  _559
REMARK  221  A    between atoms: _561  and  _563
REMARK  222  A    between atoms: _563  and  _564
REMARK  223  A    between atoms: _563  and  _566
REMARK  224  A    between atoms: _566  and  _567
REMARK  225  A    between atoms: _577  and  _579
REMARK  226  A    between atoms: _579  and  _580
REMARK  227  A    between atoms: _579  and  _582
REMARK  228  A    between atoms: _582  and  _583
REMARK  229  A    between atoms: _585  and  _587
REMARK  230  A    between atoms: _587  and  _588
REMARK  231  A    between atoms: _587  and  _590
REMARK  232  A    between atoms: _590  and  _591
REMARK  233  A    between atoms: _591  and  _592
REMARK  234  A    between atoms: _597  and  _599
REMARK  235  A    between atoms: _599  and  _600
REMARK  236  A    between atoms: _599  and  _602
REMARK  237  A    between atoms: _602  and  _603
REMARK  238  A    between atoms: _605  and  _607
REMARK  239  A    between atoms: _607  and  _608
REMARK  240  A    between atoms: _607  and  _610
REMARK  241  A    between atoms: _610  and  _611
REMARK  242  A    between atoms: _614  and  _616
REMARK  243  A    between atoms: _616  and  _617
REMARK  244  A    between atoms: _616  and  _619
REMARK  245  A    between atoms: _619  and  _620
REMARK  246  A    between atoms: _620  and  _621
REMARK  247  A    between atoms: _624  and  _626
REMARK  248  A    between atoms: _626  and  _627
REMARK  249  A    between atoms: _626  and  _629
REMARK  250  A    between atoms: _629  and  _630
REMARK  251  A    between atoms: _636  and  _638
REMARK  252  A    between atoms: _638  and  _639
REMARK  253  A    between atoms: _641  and  _643
REMARK  254  A    between atoms: _643  and  _644
REMARK  255  A    between atoms: _643  and  _646
REMARK  256  A    between atoms: _646  and  _647
REMARK  257  A    between atoms: _652  and  _653
REMARK  258  A    between atoms: _655  and  _657
REMARK  259  A    between atoms: _657  and  _658
REMARK  260  A    between atoms: _657  and  _660
REMARK  261  A    between atoms: _660  and  _661
REMARK  262  A    between atoms: _666  and  _667
REMARK  263  A    between atoms: _669  and  _671
REMARK  264  A    between atoms: _671  and  _672
REMARK  265  A    between atoms: _671  and  _674
REMARK  266  A    between atoms: _674  and  _675
REMARK  267  A    between atoms: _675  and  _676
REMARK  268  A    between atoms: _676  and  _677
REMARK                            x       y       z     vdW  Elec       q    Type
REMARK                         _______ _______ _______ _____ _____    ______ ____
ROOT
ATOM      1  C   GLU A   1      -6.248   3.534  -8.207  0.00  0.00    +0.238 C 
ATOM      2  N   TYR A   2      -6.764   3.961  -7.054  0.00  0.00    -0.298 N 
ATOM      3  H   TYR A   2      -7.773   4.211  -7.013  0.00  0.00    +0.150 HD
ATOM      4  O   GLU A   1      -5.076   3.212  -8.326  0.00  0.00    -0.274 OA
ENDROOT
BRANCH   1   5
ATOM      5  CA  GLU A   1      -7.186   3.430  -9.421  0.00  0.00    +0.145 C 
BRANCH   5   6
ATOM      6  N   GLU A   1      -8.567   3.065  -9.095  0.00  0.00    -0.238 NA
ATOM      7  H   GLU A   1      -9.332   3.721  -9.351  0.00  0.00    +0.142 HD
ENDBRANCH   5   6
BRANCH   5   8
ATOM      8  CB  GLU A   1      -7.127   4.696 -10.304  0.00  0.00    +0.038 C 
BRANCH   8   9
ATOM      9  CG  GLU A   1      -7.080   6.039  -9.582  0.00  0.00    +0.116 C 
BRANCH   9  10
ATOM     10  CD  GLU A   1      -5.736   6.765  -9.709  0.00  0.00    +0.365 C 
ATOM     11  OE2 GLU A   1      -5.102   7.052  -8.669  0.00  0.00    -0.246 OA
ATOM     12  OE1 GLU A   1      -5.303   7.074 -10.841  0.00  0.00    -0.246 OA
ENDBRANCH   9  10
ENDBRANCH   8   9
ENDBRANCH   5   8
ENDBRANCH   1   5
BRANCH   2  13
ATOM     13  CA  TYR A   2      -5.950   4.087  -5.845  0.00  0.00    +0.141 C 
BRANCH  13  14
ATOM     14  C   TYR A   2      -5.931   2.824  -4.986  0.00  0.00    +0.227 C 
ATOM     15  O   TYR A   2      -5.242   2.795  -3.966  0.00  0.00    -0.286 OA
ENDBRANCH  13  14
BRANCH  13  16
ATOM     16  CB  TYR A   2      -6.424   5.266  -4.972  0.00  0.00    +0.054 C 
BRANCH  16  17
ATOM     17  CG  TYR A   2      -6.234   6.634  -5.596  0.00  0.00    -0.020 A 
ATOM     18  CD2 TYR A   2      -4.975   7.243  -5.642  0.00  0.00    -0.001 A 
ATOM     19  CE2 TYR A   2      -4.809   8.503  -6.211  0.00  0.00    +0.036 A 
ATOM     20  CZ  TYR A   2      -5.917   9.167  -6.742  0.00  0.00    +0.134 A 
ATOM     21  CE1 TYR A   2      -7.169   8.581  -6.703  0.00  0.00    +0.036 A 
ATOM     22  CD1 TYR A   2      -7.323   7.326  -6.134  0.00  0.00    -0.001 A 
BRANCH  20  23
ATOM     23  OH  TYR A   2      -5.788  10.411  -7.318  0.00  0.00    -0.506 OA
ATOM     24  HH  TYR A   2      -4.842  10.698  -7.272  0.00  0.00    +0.292 HD
ENDBRANCH  20  23
ENDBRANCH  16  17
ENDBRANCH  13  16
ENDBRANCH   2  13
TORSDOF 10
REMARK  Name = ../refined-set-2016/3zm9/3zm9_pocket.pdb
REMARK  268 active torsions:
REMARK  status: ('A' for Active; 'I' for Inactive)
REMARK    1  A    between atoms: _1  and  _3
REMARK    2  A    between atoms: _3  and  _4
REMARK    3  A    between atoms: _3  and  _6
REMARK    4  A    between atoms: _6  and  _7
REMARK    5  A    between atoms: _10  and  _12
REMARK    6  A    between atoms: _12  and  _13
REMARK    7  A    between atoms: _12  and  _15
REMARK    8  A    between atoms: _15  and  _16
REMARK    9  A    between atoms: _16  and  _17
REMARK   10  A    between atoms: _17  and  _18
REMARK   11  A    between atoms: _27  and  _29
REMARK   12  A    between atoms: _29  and  _30
REMARK   13  A    between atoms: _29  and  _32
REMARK   14  A    between atoms: _32  and  _33
REMARK   15  A    between atoms: _38  and  _40
REMARK   16  A    between atoms: _40  and  _41
REMARK   17  A    between atoms: _40  and  _43
REMARK   18  A    between atoms: _43  and  _44
REMARK   19  A    between atoms: _47  and  _49
REMARK   20  A    between atoms: _49  and  _50
REMARK   21  A    between atoms: _49  and  _52
REMARK   22  A    between atoms: _52  and  _53
REMARK   23  A    between atoms: _53  and  _54
REMARK   24  A    between atoms: _59  and  _61
REMARK   25  A    between atoms: _61  and  _62
REMARK   26  A    between atoms: _61  and  _64
REMARK   27  A    between atoms: _67  and  _69
REMARK   28  A    between atoms: _69  and  _70
REMARK   29  A    between atoms: _69  and  _72
REMARK   30  A    between atoms: _72  and  _73
REMARK   31  A    between atoms: _76  and  _78
REMARK   32  A    between atoms: _78  and  _79
REMARK   33  A    between atoms: _78  and  _81
REMARK   34  A    between atoms: _81  and  _82
REMARK   35  A    between atoms: _85  and  _87
REMARK   36  A    between atoms: _87  and  _88
REMARK   37  A    between atoms: _87  and  _90
REMARK   38  A    between atoms: _90  and  _91
REMARK   39  A    between atoms: _91  and  _92
REMARK   40  A    between atoms: _92  and  _93
REMARK   41  A    between atoms: _102  and  _104
REMARK   42  A    between atoms: _104  and  _105
REMARK   43  A    between atoms: _104  and  _107
REMARK   44  A    between atoms: _107  and  _108
REMARK   45  A    between atoms: _114  and  _116
REMARK   46  A    between atoms: _116  and  _117
REMARK   47  A    between atoms: _120  and  _121
REMARK   48  A    between atoms: _126  and  _128
REMARK   49  A    between atoms: _128  and  _129
REMARK   50  A    between atoms: _128  and  _131
REMARK   51  A    between atoms: _131  and  _132
REMARK   52  A    between atoms: _132  and  _133
REMARK   53  A    between atoms: _133  and  _134
REMARK   54  A    between atoms: _134  and  _135
REMARK   55  A    between atoms: _139  and  _141
REMARK   56  A    between atoms: _141  and  _142
REMARK   57  A    between atoms: _141  and  _144
REMARK   58  A    between atoms: _144  and  _145
REMARK   59  A    between atoms: _145  and  _146
REMARK   60  A    between atoms: _146  and  _147
REMARK   61  A    between atoms: _156  and  _158
REMARK   62  A    between atoms: _158  and  _159
REMARK   63  A    between atoms: _158  and  _161
REMARK   64  A    between atoms: _161  and  _162
REMARK   65  A    between atoms: _165  and  _167
REMARK   66  A    between atoms: _167  and  _168
REMARK   67  A    between atoms: _167  and  _170
REMARK   68  A    between atoms: _170  and  _171
REMARK   69  A    between atoms: _171  and  _172
REMARK   70  A    between atoms: _175  and  _177
REMARK   71  A    between atoms: _177  and  _178
REMARK   72  A    between atoms: _177  and  _180
REMARK   73  A    between atoms: _180  and  _181
REMARK   74  A    between atoms: _181  and  _182
REMARK   75  A    between atoms: _187  and  _189
REMARK   76  A    between atoms: _189  and  _190
REMARK   77  A    between atoms: _189  and  _192
REMARK   78  A    between atoms: _192  and  _193
REMARK   79  A    between atoms: _199  and  _201
REMARK   80  A    between atoms: _201  and  _202
REMARK   81  A    between atoms: _201  and  _204
REMARK   82  A    between atoms: _204  and  _205
REMARK   83  A    between atoms: _209  and  _210
REMARK   84  A    between atoms: _215  and  _217
REMARK   85  A    between atoms: _217  and  _218
REMARK   86  A    between atoms: _217  and  _220
REMARK   87  A    between atoms: _220  and  _221
REMARK   88  A    between atoms: _223  and  _225
REMARK   89  A    between atoms: _225  and  _226
REMARK   90  A    between atoms: _225  and  _228
REMARK   91  A    between atoms: _228  and  _229
REMARK   92  A    between atoms: _229  and  _230
REMARK   93  A    between atoms: _230  and  _231
REMARK   94  A    between atoms: _240  and  _242
REMARK   95  A    between atoms: _242  and  _243
REMARK   96  A    between atoms: _242  and  _245
REMARK   97  A    between atoms: _245  and  _246
REMARK   98  A    between atoms: _246  and  _247
REMARK   99  A    between atoms: _247  and  _248
REMARK  100  A    between atoms: _257  and  _259
REMARK  101  A    between atoms: _259  and  _260
REMARK  102  A    between atoms: _259  and  _262
REMARK  103  A    between atoms: _262  and  _263
REMARK  104  A    between atoms: _266  and  _268
REMARK  105  A    between atoms: _268  and  _269
REMARK  106  A    between atoms: _268  and  _271
REMARK  107  A    between atoms: _271  and  _272
REMARK  108  A    between atoms: _277  and  _278
REMARK  109  A    between atoms: _280  and  _282
REMARK  110  A    between atoms: _282  and  _283
REMARK  111  A    between atoms: _282  and  _285
REMARK  112  A    between atoms: _285  and  _286
REMARK  113  A    between atoms: _291  and  _293
REMARK  114  A    between atoms: _293  and  _294
REMARK  115  A    between atoms: _293  and  _296
REMARK  116  A    between atoms: _296  and  _297
REMARK  117  A    between atoms: _300  and  _302
REMARK  118  A    between atoms: _302  and  _303
REMARK  119  A    between atoms: _302  and  _305
REMARK  120  A    between atoms: _307  and  _309
REMARK  121  A    between atoms: _309  and  _310
REMARK  122  A    between atoms: _309  and  _312
REMARK  123  A    between atoms: _312  and  _313
REMARK  124  A    between atoms: _313  and  _314
REMARK  125  A    between atoms: _319  and  _321
REMARK  126  A    between atoms: _321  and  _322
REMARK  127  A    between atoms: _321  and  _324
REMARK  128  A    between atoms: _324  and  _325
REMARK  129  A    between atoms: _325  and  _326
REMARK  130  A    between atoms: _329  and  _331
REMARK  131  A    between atoms: _331  and  _332
REMARK  132  A    between atoms: _334  and  _336
REMARK  133  A    between atoms: _336  and  _337
REMARK  134  A    between atoms: _336  and  _339
REMARK  135  A    between atoms: _339  and  _340
REMARK  136  A    between atoms: _345  and  _347
REMARK  137  A    between atoms: _347  and  _348
REMARK  138  A    between atoms: _347  and  _350
REMARK  139  A    between atoms: _350  and  _351
REMARK  140  A    between atoms: _354  and  _356
REMARK  141  A    between atoms: _356  and  _357
REMARK  142  A    between atoms: _356  and  _359
REMARK  143  A    between atoms: _359  and  _360
REMARK  144  A    between atoms: _363  and  _365
REMARK  145  A    between atoms: _365  and  _366
REMARK  146  A    between atoms: _365  and  _368
REMARK  147  A    between atoms: _368  and  _369
REMARK  148  A    between atoms: _369  and  _370
REMARK  149  A    between atoms: _372  and  _374
REMARK  150  A    between atoms: _374  and  _375
REMARK  151  A    between atoms: _374  and  _377
REMARK  152  A    between atoms: _377  and  _378
REMARK  153  A    between atoms: _381  and  _383
REMARK  154  A    between atoms: _383  and  _384
REMARK  155  A    between atoms: _383  and  _386
REMARK  156  A    between atoms: _386  and  _387
REMARK  157  A    between atoms: _390  and  _392
REMARK  158  A    between atoms: _392  and  _393
REMARK  159  A    between atoms: _392  and  _395
REMARK  160  A    between atoms: _395  and  _396
REMARK  161  A    between atoms: _396  and  _397
REMARK  162  A    between atoms: _400  and  _402
REMARK  163  A    between atoms: _402  and  _403
REMARK  164  A    between atoms: _402  and  _405
REMARK  165  A    between atoms: _405  and  _406
REMARK  166  A    between atoms: _411  and  _412
REMARK  167  A    between atoms: _414  and  _416
REMARK  168  A    between atoms: _416  and  _417
REMARK  169  A    between atoms: _416  and  _419
REMARK  170  A    between atoms: _419  and  _420
REMARK  171  A    between atoms: _426  and  _428
REMARK  172  A    between atoms: _428  and  _429
REMARK  173  A    between atoms: _428  and  _431
REMARK  174  A    between atoms: _431  and  _432
REMARK  175  A    between atoms: _437  and  _439
REMARK  176  A    between atoms: _439  and  _440
REMARK  177  A    between atoms: _439  and  _442
REMARK  178  A    between atoms: _442  and  _443
REMARK  179  A    between atoms: _443  and  _444
REMARK  180  A    between atoms: _447  and  _449
REMARK  181  A    between atoms: _449  and  _450
REMARK  182  A    between atoms: _449  and  _452
REMARK  183  A    between atoms: _452  and  _453
REMARK  184  A    between atoms: _458  and  _459
REMARK  185  A    between atoms: _461  and  _463
REMARK  186  A    between atoms: _463  and  _464
REMARK  187  A    between atoms: _463  and  _466
REMARK  188  A    between atoms: _466  and  _467
REMARK  189  A    between atoms: _470  and  _472
REMARK  190  A    between atoms: _472  and  _473
REMARK  191  A    between atoms: _472  and  _475
REMARK  192  A    between atoms: _475  and  _476
REMARK  193  A    between atoms: _481  and  _482
REMARK  194  A    between atoms: _484  and  _486
REMARK  195  A    between atoms: _486  and  _487
REMARK  196  A    between atoms: _486  and  _489
REMARK  197  A    between atoms: _489  and  _490
REMARK  198  A    between atoms: _493  and  _494
REMARK  199  A    between atoms: _499  and  _501
REMARK  200  A    between atoms: _501  and  _502
REMARK  201  A    between atoms: _501  and  _504
REMARK  202  A    between atoms: _504  and  _505
REMARK  203  A    between atoms: _511  and  _513
REMARK  204  A    between atoms: _513  and  _514
REMARK  205  A    between atoms: _513  and  _516
REMARK  206  A    between atoms: _516  and  _517
REMARK  207  A    between atoms: _523  and  _525
REMARK  208  A    between atoms: _525  and  _526
REMARK  209  A    between atoms: _525  and  _528
REMARK  210  A    between atoms: _528  and  _529
REMARK  211  A    between atoms: _531  and  _533
REMARK  212  A    between atoms: _533  and  _534
REMARK  213  A    between atoms: _533  and  _536
REMARK  214  A    between atoms: _536  and  _537
REMARK  215  A    between atoms: _540  and  _542
REMARK  216  A    between atoms: _542  and  _543
REMARK  217  A    between atoms: _542  and  _545
REMARK  218  A    between atoms: _545  and  _546
REMARK  219  A    between atoms: _556  and  _558
REMARK  220  A    between atoms: _558  and  _559
REMARK  221  A    between atoms: _561  and  _563
REMARK  222  A    between atoms: _563  and  _564
REMARK  223  A    between atoms: _563  and  _566
REMARK  224  A    between atoms: _566  and  _567
REMARK  225  A    between atoms: _577  and  _579
REMARK  226  A    between atoms: _579  and  _580
REMARK  227  A    between atoms: _579  and  _582
REMARK  228  A    between atoms: _582  and  _583
REMARK  229  A    between atoms: _585  and  _587
REMARK  230  A    between atoms: _587  and  _588
REMARK  231  A    between atoms: _587  and  _590
REMARK  232  A    between atoms: _590  and  _591
REMARK  233  A    between atoms: _591  and  _592
REMARK  234  A    between atoms: _597  and  _599
REMARK  235  A    between atoms: _599  and  _600
REMARK  236  A    between atoms: _599  and  _602
REMARK  237  A    between atoms: _602  and  _603
REMARK  238  A    between atoms: _605  and  _607
REMARK  239  A    between atoms: _607  and  _608
REMARK  240  A    between atoms: _607  and  _610
REMARK  241  A    between atoms: _610  and  _611
REMARK  242  A    between atoms: _614  and  _616
REMARK  243  A    between atoms: _616  and  _617
REMARK  244  A    between atoms: _616  and  _619
REMARK  245  A    between atoms: _619  and  _620
REMARK  246  A    between atoms: _620  and  _621
REMARK  247  A    between atoms: _624  and  _626
REMARK  248  A    between atoms: _626  and  _627
REMARK  249  A    between atoms: _626  and  _629
REMARK  250  A    between atoms: _629  and  _630
REMARK  251  A    between atoms: _636  and  _638
REMARK  252  A    between atoms: _638  and  _639
REMARK  253  A    between atoms: _641  and  _643
REMARK  254  A    between atoms: _643  and  _644
REMARK  255  A    between atoms: _643  and  _646
REMARK  256  A    between atoms: _646  and  _647
REMARK  257  A    between atoms: _652  and  _653
REMARK  258  A    between atoms: _655  and  _657
REMARK  259  A    between atoms: _657  and  _658
REMARK  260  A    between atoms: _657  and  _660
REMARK  261  A    between atoms: _660  and  _661
REMARK  262  A    between atoms: _666  and  _667
REMARK  263  A    between atoms: _669  and  _671
REMARK  264  A    between atoms: _671  and  _672
REMARK  265  A    between atoms: _671  and  _674
REMARK  266  A    between atoms: _674  and  _675
REMARK  267  A    between atoms: _675  and  _676
REMARK  268  A    between atoms: _676  and  _677
REMARK                            x       y       z     vdW  Elec       q    Type
REMARK                         _______ _______ _______ _____ _____    ______ ____
ROOT
ATOM      1  CB  PHE A   1      -7.080   4.258   5.442  0.00  0.00    +0.051 C 
ENDROOT
BRANCH   1   2
ATOM      2  CG  PHE A   1      -6.880   5.384   4.455  0.00  0.00    -0.020 A 
ATOM      3  CD2 PHE A   1      -6.291   6.585   4.867  0.00  0.00    -0.004 A 
ATOM      4  CE2 PHE A   1      -6.146   7.651   3.979  0.00  0.00    -0.000 A 
ATOM      5  CZ  PHE A   1      -6.597   7.528   2.673  0.00  0.00    -0.000 A 
ATOM      6  CE1 PHE A   1      -7.209   6.347   2.263  0.00  0.00    -0.000 A 
ATOM      7  CD1 PHE A   1      -7.345   5.287   3.158  0.00  0.00    -0.004 A 
ENDBRANCH   1   2
BRANCH   1   8
ATOM      8  CA  PHE A   1      -8.387   4.398   6.248  0.00  0.00    +0.137 C 
BRANCH   8   9
ATOM      9  N   PHE A   1      -8.599   3.357   7.248  0.00  0.00    -0.239 NA
ATOM     10  H   PHE A   1      -7.968   2.530   7.262  0.00  0.00    +0.142 HD
ENDBRANCH   8   9
BRANCH   8  11
ATOM     11  C   PHE A   1      -9.569   4.467   5.304  0.00  0.00    +0.224 C 
ATOM     12  O   PHE A   1     -10.063   5.566   5.013  0.00  0.00    -0.287 OA
ENDBRANCH   8  11
ENDBRANCH   1   8
TORSDOF 4
REMARK  Name = ../refined-set-2016/3zm9/3zm9_pocket.pdb
REMARK  268 active torsions:
REMARK  status: ('A' for Active; 'I' for Inactive)
REMARK    1  A    between atoms: _1  and  _3
REMARK    2  A    between atoms: _3  and  _4
REMARK    3  A    between atoms: _3  and  _6
REMARK    4  A    between atoms: _6  and  _7
REMARK    5  A    between atoms: _10  and  _12
REMARK    6  A    between atoms: _12  and  _13
REMARK    7  A    between atoms: _12  and  _15
REMARK    8  A    between atoms: _15  and  _16
REMARK    9  A    between atoms: _16  and  _17
REMARK   10  A    between atoms: _17  and  _18
REMARK   11  A    between atoms: _27  and  _29
REMARK   12  A    between atoms: _29  and  _30
REMARK   13  A    between atoms: _29  and  _32
REMARK   14  A    between atoms: _32  and  _33
REMARK   15  A    between atoms: _38  and  _40
REMARK   16  A    between atoms: _40  and  _41
REMARK   17  A    between atoms: _40  and  _43
REMARK   18  A    between atoms: _43  and  _44
REMARK   19  A    between atoms: _47  and  _49
REMARK   20  A    between atoms: _49  and  _50
REMARK   21  A    between atoms: _49  and  _52
REMARK   22  A    between atoms: _52  and  _53
REMARK   23  A    between atoms: _53  and  _54
REMARK   24  A    between atoms: _59  and  _61
REMARK   25  A    between atoms: _61  and  _62
REMARK   26  A    between atoms: _61  and  _64
REMARK   27  A    between atoms: _67  and  _69
REMARK   28  A    between atoms: _69  and  _70
REMARK   29  A    between atoms: _69  and  _72
REMARK   30  A    between atoms: _72  and  _73
REMARK   31  A    between atoms: _76  and  _78
REMARK   32  A    between atoms: _78  and  _79
REMARK   33  A    between atoms: _78  and  _81
REMARK   34  A    between atoms: _81  and  _82
REMARK   35  A    between atoms: _85  and  _87
REMARK   36  A    between atoms: _87  and  _88
REMARK   37  A    between atoms: _87  and  _90
REMARK   38  A    between atoms: _90  and  _91
REMARK   39  A    between atoms: _91  and  _92
REMARK   40  A    between atoms: _92  and  _93
REMARK   41  A    between atoms: _102  and  _104
REMARK   42  A    between atoms: _104  and  _105
REMARK   43  A    between atoms: _104  and  _107
REMARK   44  A    between atoms: _107  and  _108
REMARK   45  A    between atoms: _114  and  _116
REMARK   46  A    between atoms: _116  and  _117
REMARK   47  A    between atoms: _120  and  _121
REMARK   48  A    between atoms: _126  and  _128
REMARK   49  A    between atoms: _128  and  _129
REMARK   50  A    between atoms: _128  and  _131
REMARK   51  A    between atoms: _131  and  _132
REMARK   52  A    between atoms: _132  and  _133
REMARK   53  A    between atoms: _133  and  _134
REMARK   54  A    between atoms: _134  and  _135
REMARK   55  A    between atoms: _139  and  _141
REMARK   56  A    between atoms: _141  and  _142
REMARK   57  A    between atoms: _141  and  _144
REMARK   58  A    between atoms: _144  and  _145
REMARK   59  A    between atoms: _145  and  _146
REMARK   60  A    between atoms: _146  and  _147
REMARK   61  A    between atoms: _156  and  _158
REMARK   62  A    between atoms: _158  and  _159
REMARK   63  A    between atoms: _158  and  _161
REMARK   64  A    between atoms: _161  and  _162
REMARK   65  A    between atoms: _165  and  _167
REMARK   66  A    between atoms: _167  and  _168
REMARK   67  A    between atoms: _167  and  _170
REMARK   68  A    between atoms: _170  and  _171
REMARK   69  A    between atoms: _171  and  _172
REMARK   70  A    between atoms: _175  and  _177
REMARK   71  A    between atoms: _177  and  _178
REMARK   72  A    between atoms: _177  and  _180
REMARK   73  A    between atoms: _180  and  _181
REMARK   74  A    between atoms: _181  and  _182
REMARK   75  A    between atoms: _187  and  _189
REMARK   76  A    between atoms: _189  and  _190
REMARK   77  A    between atoms: _189  and  _192
REMARK   78  A    between atoms: _192  and  _193
REMARK   79  A    between atoms: _199  and  _201
REMARK   80  A    between atoms: _201  and  _202
REMARK   81  A    between atoms: _201  and  _204
REMARK   82  A    between atoms: _204  and  _205
REMARK   83  A    between atoms: _209  and  _210
REMARK   84  A    between atoms: _215  and  _217
REMARK   85  A    between atoms: _217  and  _218
REMARK   86  A    between atoms: _217  and  _220
REMARK   87  A    between atoms: _220  and  _221
REMARK   88  A    between atoms: _223  and  _225
REMARK   89  A    between atoms: _225  and  _226
REMARK   90  A    between atoms: _225  and  _228
REMARK   91  A    between atoms: _228  and  _229
REMARK   92  A    between atoms: _229  and  _230
REMARK   93  A    between atoms: _230  and  _231
REMARK   94  A    between atoms: _240  and  _242
REMARK   95  A    between atoms: _242  and  _243
REMARK   96  A    between atoms: _242  and  _245
REMARK   97  A    between atoms: _245  and  _246
REMARK   98  A    between atoms: _246  and  _247
REMARK   99  A    between atoms: _247  and  _248
REMARK  100  A    between atoms: _257  and  _259
REMARK  101  A    between atoms: _259  and  _260
REMARK  102  A    between atoms: _259  and  _262
REMARK  103  A    between atoms: _262  and  _263
REMARK  104  A    between atoms: _266  and  _268
REMARK  105  A    between atoms: _268  and  _269
REMARK  106  A    between atoms: _268  and  _271
REMARK  107  A    between atoms: _271  and  _272
REMARK  108  A    between atoms: _277  and  _278
REMARK  109  A    between atoms: _280  and  _282
REMARK  110  A    between atoms: _282  and  _283
REMARK  111  A    between atoms: _282  and  _285
REMARK  112  A    between atoms: _285  and  _286
REMARK  113  A    between atoms: _291  and  _293
REMARK  114  A    between atoms: _293  and  _294
REMARK  115  A    between atoms: _293  and  _296
REMARK  116  A    between atoms: _296  and  _297
REMARK  117  A    between atoms: _300  and  _302
REMARK  118  A    between atoms: _302  and  _303
REMARK  119  A    between atoms: _302  and  _305
REMARK  120  A    between atoms: _307  and  _309
REMARK  121  A    between atoms: _309  and  _310
REMARK  122  A    between atoms: _309  and  _312
REMARK  123  A    between atoms: _312  and  _313
REMARK  124  A    between atoms: _313  and  _314
REMARK  125  A    between atoms: _319  and  _321
REMARK  126  A    between atoms: _321  and  _322
REMARK  127  A    between atoms: _321  and  _324
REMARK  128  A    between atoms: _324  and  _325
REMARK  129  A    between atoms: _325  and  _326
REMARK  130  A    between atoms: _329  and  _331
REMARK  131  A    between atoms: _331  and  _332
REMARK  132  A    between atoms: _334  and  _336
REMARK  133  A    between atoms: _336  and  _337
REMARK  134  A    between atoms: _336  and  _339
REMARK  135  A    between atoms: _339  and  _340
REMARK  136  A    between atoms: _345  and  _347
REMARK  137  A    between atoms: _347  and  _348
REMARK  138  A    between atoms: _347  and  _350
REMARK  139  A    between atoms: _350  and  _351
REMARK  140  A    between atoms: _354  and  _356
REMARK  141  A    between atoms: _356  and  _357
REMARK  142  A    between atoms: _356  and  _359
REMARK  143  A    between atoms: _359  and  _360
REMARK  144  A    between atoms: _363  and  _365
REMARK  145  A    between atoms: _365  and  _366
REMARK  146  A    between atoms: _365  and  _368
REMARK  147  A    between atoms: _368  and  _369
REMARK  148  A    between atoms: _369  and  _370
REMARK  149  A    between atoms: _372  and  _374
REMARK  150  A    between atoms: _374  and  _375
REMARK  151  A    between atoms: _374  and  _377
REMARK  152  A    between atoms: _377  and  _378
REMARK  153  A    between atoms: _381  and  _383
REMARK  154  A    between atoms: _383  and  _384
REMARK  155  A    between atoms: _383  and  _386
REMARK  156  A    between atoms: _386  and  _387
REMARK  157  A    between atoms: _390  and  _392
REMARK  158  A    between atoms: _392  and  _393
REMARK  159  A    between atoms: _392  and  _395
REMARK  160  A    between atoms: _395  and  _396
REMARK  161  A    between atoms: _396  and  _397
REMARK  162  A    between atoms: _400  and  _402
REMARK  163  A    between atoms: _402  and  _403
REMARK  164  A    between atoms: _402  and  _405
REMARK  165  A    between atoms: _405  and  _406
REMARK  166  A    between atoms: _411  and  _412
REMARK  167  A    between atoms: _414  and  _416
REMARK  168  A    between atoms: _416  and  _417
REMARK  169  A    between atoms: _416  and  _419
REMARK  170  A    between atoms: _419  and  _420
REMARK  171  A    between atoms: _426  and  _428
REMARK  172  A    between atoms: _428  and  _429
REMARK  173  A    between atoms: _428  and  _431
REMARK  174  A    between atoms: _431  and  _432
REMARK  175  A    between atoms: _437  and  _439
REMARK  176  A    between atoms: _439  and  _440
REMARK  177  A    between atoms: _439  and  _442
REMARK  178  A    between atoms: _442  and  _443
REMARK  179  A    between atoms: _443  and  _444
REMARK  180  A    between atoms: _447  and  _449
REMARK  181  A    between atoms: _449  and  _450
REMARK  182  A    between atoms: _449  and  _452
REMARK  183  A    between atoms: _452  and  _453
REMARK  184  A    between atoms: _458  and  _459
REMARK  185  A    between atoms: _461  and  _463
REMARK  186  A    between atoms: _463  and  _464
REMARK  187  A    between atoms: _463  and  _466
REMARK  188  A    between atoms: _466  and  _467
REMARK  189  A    between atoms: _470  and  _472
REMARK  190  A    between atoms: _472  and  _473
REMARK  191  A    between atoms: _472  and  _475
REMARK  192  A    between atoms: _475  and  _476
REMARK  193  A    between atoms: _481  and  _482
REMARK  194  A    between atoms: _484  and  _486
REMARK  195  A    between atoms: _486  and  _487
REMARK  196  A    between atoms: _486  and  _489
REMARK  197  A    between atoms: _489  and  _490
REMARK  198  A    between atoms: _493  and  _494
REMARK  199  A    between atoms: _499  and  _501
REMARK  200  A    between atoms: _501  and  _502
REMARK  201  A    between atoms: _501  and  _504
REMARK  202  A    between atoms: _504  and  _505
REMARK  203  A    between atoms: _511  and  _513
REMARK  204  A    between atoms: _513  and  _514
REMARK  205  A    between atoms: _513  and  _516
REMARK  206  A    between atoms: _516  and  _517
REMARK  207  A    between atoms: _523  and  _525
REMARK  208  A    between atoms: _525  and  _526
REMARK  209  A    between atoms: _525  and  _528
REMARK  210  A    between atoms: _528  and  _529
REMARK  211  A    between atoms: _531  and  _533
REMARK  212  A    between atoms: _533  and  _534
REMARK  213  A    between atoms: _533  and  _536
REMARK  214  A    between atoms: _536  and  _537
REMARK  215  A    between atoms: _540  and  _542
REMARK  216  A    between atoms: _542  and  _543
REMARK  217  A    between atoms: _542  and  _545
REMARK  218  A    between atoms: _545  and  _546
REMARK  219  A    between atoms: _556  and  _558
REMARK  220  A    between atoms: _558  and  _559
REMARK  221  A    between atoms: _561  and  _563
REMARK  222  A    between atoms: _563  and  _564
REMARK  223  A    between atoms: _563  and  _566
REMARK  224  A    between atoms: _566  and  _567
REMARK  225  A    between atoms: _577  and  _579
REMARK  226  A    between atoms: _579  and  _580
REMARK  227  A    between atoms: _579  and  _582
REMARK  228  A    between atoms: _582  and  _583
REMARK  229  A    between atoms: _585  and  _587
REMARK  230  A    between atoms: _587  and  _588
REMARK  231  A    between atoms: _587  and  _590
REMARK  232  A    between atoms: _590  and  _591
REMARK  233  A    between atoms: _591  and  _592
REMARK  234  A    between atoms: _597  and  _599
REMARK  235  A    between atoms: _599  and  _600
REMARK  236  A    between atoms: _599  and  _602
REMARK  237  A    between atoms: _602  and  _603
REMARK  238  A    between atoms: _605  and  _607
REMARK  239  A    between atoms: _607  and  _608
REMARK  240  A    between atoms: _607  and  _610
REMARK  241  A    between atoms: _610  and  _611
REMARK  242  A    between atoms: _614  and  _616
REMARK  243  A    between atoms: _616  and  _617
REMARK  244  A    between atoms: _616  and  _619
REMARK  245  A    between atoms: _619  and  _620
REMARK  246  A    between atoms: _620  and  _621
REMARK  247  A    between atoms: _624  and  _626
REMARK  248  A    between atoms: _626  and  _627
REMARK  249  A    between atoms: _626  and  _629
REMARK  250  A    between atoms: _629  and  _630
REMARK  251  A    between atoms: _636  and  _638
REMARK  252  A    between atoms: _638  and  _639
REMARK  253  A    between atoms: _641  and  _643
REMARK  254  A    between atoms: _643  and  _644
REMARK  255  A    between atoms: _643  and  _646
REMARK  256  A    between atoms: _646  and  _647
REMARK  257  A    between atoms: _652  and  _653
REMARK  258  A    between atoms: _655  and  _657
REMARK  259  A    between atoms: _657  and  _658
REMARK  260  A    between atoms: _657  and  _660
REMARK  261  A    between atoms: _660  and  _661
REMARK  262  A    between atoms: _666  and  _667
REMARK  263  A    between atoms: _669  and  _671
REMARK  264  A    between atoms: _671  and  _672
REMARK  265  A    between atoms: _671  and  _674
REMARK  266  A    between atoms: _674  and  _675
REMARK  267  A    between atoms: _675  and  _676
REMARK  268  A    between atoms: _676  and  _677
REMARK                            x       y       z     vdW  Elec       q    Type
REMARK                         _______ _______ _______ _____ _____    ______ ____
ROOT
ATOM      1  CB  ASN A   1     -10.879   7.852   3.152  0.00  0.00    +0.110 C 
ENDROOT
BRANCH   1   2
ATOM      2  CG  ASN A   1     -10.758   8.703   1.909  0.00  0.00    +0.221 C 
ATOM      3  OD1 ASN A   1     -10.160   9.779   1.937  0.00  0.00    -0.275 OA
ATOM      4  ND2 ASN A   1     -11.344   8.239   0.806  0.00  0.00    -0.329 N 
ATOM      5 HD21 ASN A   1     -11.839   7.325   0.826  0.00  0.00    +0.145 HD
ATOM      6 HD22 ASN A   1     -11.306   8.791  -0.074  0.00  0.00    +0.145 HD
ENDBRANCH   1   2
BRANCH   1   7
ATOM      7  CA  ASN A   1     -11.741   8.509   4.246  0.00  0.00    +0.142 C 
BRANCH   7   8
ATOM      8  N   ASN A   1     -11.717   7.723   5.486  0.00  0.00    -0.239 NA
ATOM      9  H   ASN A   1     -11.188   6.828   5.510  0.00  0.00    +0.142 HD
ENDBRANCH   7   8
BRANCH   7  10
ATOM     10  C   ASN A   1     -13.163   8.716   3.738  0.00  0.00    +0.225 C 
ATOM     11  O   ASN A   1     -13.533   9.819   3.304  0.00  0.00    -0.287 OA
ENDBRANCH   7  10
ENDBRANCH   1   7
TORSDOF 4
REMARK  Name = ../refined-set-2016/3zm9/3zm9_pocket.pdb
REMARK  268 active torsions:
REMARK  status: ('A' for Active; 'I' for Inactive)
REMARK    1  A    between atoms: _1  and  _3
REMARK    2  A    between atoms: _3  and  _4
REMARK    3  A    between atoms: _3  and  _6
REMARK    4  A    between atoms: _6  and  _7
REMARK    5  A    between atoms: _10  and  _12
REMARK    6  A    between atoms: _12  and  _13
REMARK    7  A    between atoms: _12  and  _15
REMARK    8  A    between atoms: _15  and  _16
REMARK    9  A    between atoms: _16  and  _17
REMARK   10  A    between atoms: _17  and  _18
REMARK   11  A    between atoms: _27  and  _29
REMARK   12  A    between atoms: _29  and  _30
REMARK   13  A    between atoms: _29  and  _32
REMARK   14  A    between atoms: _32  and  _33
REMARK   15  A    between atoms: _38  and  _40
REMARK   16  A    between atoms: _40  and  _41
REMARK   17  A    between atoms: _40  and  _43
REMARK   18  A    between atoms: _43  and  _44
REMARK   19  A    between atoms: _47  and  _49
REMARK   20  A    between atoms: _49  and  _50
REMARK   21  A    between atoms: _49  and  _52
REMARK   22  A    between atoms: _52  and  _53
REMARK   23  A    between atoms: _53  and  _54
REMARK   24  A    between atoms: _59  and  _61
REMARK   25  A    between atoms: _61  and  _62
REMARK   26  A    between atoms: _61  and  _64
REMARK   27  A    between atoms: _67  and  _69
REMARK   28  A    between atoms: _69  and  _70
REMARK   29  A    between atoms: _69  and  _72
REMARK   30  A    between atoms: _72  and  _73
REMARK   31  A    between atoms: _76  and  _78
REMARK   32  A    between atoms: _78  and  _79
REMARK   33  A    between atoms: _78  and  _81
REMARK   34  A    between atoms: _81  and  _82
REMARK   35  A    between atoms: _85  and  _87
REMARK   36  A    between atoms: _87  and  _88
REMARK   37  A    between atoms: _87  and  _90
REMARK   38  A    between atoms: _90  and  _91
REMARK   39  A    between atoms: _91  and  _92
REMARK   40  A    between atoms: _92  and  _93
REMARK   41  A    between atoms: _102  and  _104
REMARK   42  A    between atoms: _104  and  _105
REMARK   43  A    between atoms: _104  and  _107
REMARK   44  A    between atoms: _107  and  _108
REMARK   45  A    between atoms: _114  and  _116
REMARK   46  A    between atoms: _116  and  _117
REMARK   47  A    between atoms: _120  and  _121
REMARK   48  A    between atoms: _126  and  _128
REMARK   49  A    between atoms: _128  and  _129
REMARK   50  A    between atoms: _128  and  _131
REMARK   51  A    between atoms: _131  and  _132
REMARK   52  A    between atoms: _132  and  _133
REMARK   53  A    between atoms: _133  and  _134
REMARK   54  A    between atoms: _134  and  _135
REMARK   55  A    between atoms: _139  and  _141
REMARK   56  A    between atoms: _141  and  _142
REMARK   57  A    between atoms: _141  and  _144
REMARK   58  A    between atoms: _144  and  _145
REMARK   59  A    between atoms: _145  and  _146
REMARK   60  A    between atoms: _146  and  _147
REMARK   61  A    between atoms: _156  and  _158
REMARK   62  A    between atoms: _158  and  _159
REMARK   63  A    between atoms: _158  and  _161
REMARK   64  A    between atoms: _161  and  _162
REMARK   65  A    between atoms: _165  and  _167
REMARK   66  A    between atoms: _167  and  _168
REMARK   67  A    between atoms: _167  and  _170
REMARK   68  A    between atoms: _170  and  _171
REMARK   69  A    between atoms: _171  and  _172
REMARK   70  A    between atoms: _175  and  _177
REMARK   71  A    between atoms: _177  and  _178
REMARK   72  A    between atoms: _177  and  _180
REMARK   73  A    between atoms: _180  and  _181
REMARK   74  A    between atoms: _181  and  _182
REMARK   75  A    between atoms: _187  and  _189
REMARK   76  A    between atoms: _189  and  _190
REMARK   77  A    between atoms: _189  and  _192
REMARK   78  A    between atoms: _192  and  _193
REMARK   79  A    between atoms: _199  and  _201
REMARK   80  A    between atoms: _201  and  _202
REMARK   81  A    between atoms: _201  and  _204
REMARK   82  A    between atoms: _204  and  _205
REMARK   83  A    between atoms: _209  and  _210
REMARK   84  A    between atoms: _215  and  _217
REMARK   85  A    between atoms: _217  and  _218
REMARK   86  A    between atoms: _217  and  _220
REMARK   87  A    between atoms: _220  and  _221
REMARK   88  A    between atoms: _223  and  _225
REMARK   89  A    between atoms: _225  and  _226
REMARK   90  A    between atoms: _225  and  _228
REMARK   91  A    between atoms: _228  and  _229
REMARK   92  A    between atoms: _229  and  _230
REMARK   93  A    between atoms: _230  and  _231
REMARK   94  A    between atoms: _240  and  _242
REMARK   95  A    between atoms: _242  and  _243
REMARK   96  A    between atoms: _242  and  _245
REMARK   97  A    between atoms: _245  and  _246
REMARK   98  A    between atoms: _246  and  _247
REMARK   99  A    between atoms: _247  and  _248
REMARK  100  A    between atoms: _257  and  _259
REMARK  101  A    between atoms: _259  and  _260
REMARK  102  A    between atoms: _259  and  _262
REMARK  103  A    between atoms: _262  and  _263
REMARK  104  A    between atoms: _266  and  _268
REMARK  105  A    between atoms: _268  and  _269
REMARK  106  A    between atoms: _268  and  _271
REMARK  107  A    between atoms: _271  and  _272
REMARK  108  A    between atoms: _277  and  _278
REMARK  109  A    between atoms: _280  and  _282
REMARK  110  A    between atoms: _282  and  _283
REMARK  111  A    between atoms: _282  and  _285
REMARK  112  A    between atoms: _285  and  _286
REMARK  113  A    between atoms: _291  and  _293
REMARK  114  A    between atoms: _293  and  _294
REMARK  115  A    between atoms: _293  and  _296
REMARK  116  A    between atoms: _296  and  _297
REMARK  117  A    between atoms: _300  and  _302
REMARK  118  A    between atoms: _302  and  _303
REMARK  119  A    between atoms: _302  and  _305
REMARK  120  A    between atoms: _307  and  _309
REMARK  121  A    between atoms: _309  and  _310
REMARK  122  A    between atoms: _309  and  _312
REMARK  123  A    between atoms: _312  and  _313
REMARK  124  A    between atoms: _313  and  _314
REMARK  125  A    between atoms: _319  and  _321
REMARK  126  A    between atoms: _321  and  _322
REMARK  127  A    between atoms: _321  and  _324
REMARK  128  A    between atoms: _324  and  _325
REMARK  129  A    between atoms: _325  and  _326
REMARK  130  A    between atoms: _329  and  _331
REMARK  131  A    between atoms: _331  and  _332
REMARK  132  A    between atoms: _334  and  _336
REMARK  133  A    between atoms: _336  and  _337
REMARK  134  A    between atoms: _336  and  _339
REMARK  135  A    between atoms: _339  and  _340
REMARK  136  A    between atoms: _345  and  _347
REMARK  137  A    between atoms: _347  and  _348
REMARK  138  A    between atoms: _347  and  _350
REMARK  139  A    between atoms: _350  and  _351
REMARK  140  A    between atoms: _354  and  _356
REMARK  141  A    between atoms: _356  and  _357
REMARK  142  A    between atoms: _356  and  _359
REMARK  143  A    between atoms: _359  and  _360
REMARK  144  A    between atoms: _363  and  _365
REMARK  145  A    between atoms: _365  and  _366
REMARK  146  A    between atoms: _365  and  _368
REMARK  147  A    between atoms: _368  and  _369
REMARK  148  A    between atoms: _369  and  _370
REMARK  149  A    between atoms: _372  and  _374
REMARK  150  A    between atoms: _374  and  _375
REMARK  151  A    between atoms: _374  and  _377
REMARK  152  A    between atoms: _377  and  _378
REMARK  153  A    between atoms: _381  and  _383
REMARK  154  A    between atoms: _383  and  _384
REMARK  155  A    between atoms: _383  and  _386
REMARK  156  A    between atoms: _386  and  _387
REMARK  157  A    between atoms: _390  and  _392
REMARK  158  A    between atoms: _392  and  _393
REMARK  159  A    between atoms: _392  and  _395
REMARK  160  A    between atoms: _395  and  _396
REMARK  161  A    between atoms: _396  and  _397
REMARK  162  A    between atoms: _400  and  _402
REMARK  163  A    between atoms: _402  and  _403
REMARK  164  A    between atoms: _402  and  _405
REMARK  165  A    between atoms: _405  and  _406
REMARK  166  A    between atoms: _411  and  _412
REMARK  167  A    between atoms: _414  and  _416
REMARK  168  A    between atoms: _416  and  _417
REMARK  169  A    between atoms: _416  and  _419
REMARK  170  A    between atoms: _419  and  _420
REMARK  171  A    between atoms: _426  and  _428
REMARK  172  A    between atoms: _428  and  _429
REMARK  173  A    between atoms: _428  and  _431
REMARK  174  A    between atoms: _431  and  _432
REMARK  175  A    between atoms: _437  and  _439
REMARK  176  A    between atoms: _439  and  _440
REMARK  177  A    between atoms: _439  and  _442
REMARK  178  A    between atoms: _442  and  _443
REMARK  179  A    between atoms: _443  and  _444
REMARK  180  A    between atoms: _447  and  _449
REMARK  181  A    between atoms: _449  and  _450
REMARK  182  A    between atoms: _449  and  _452
REMARK  183  A    between atoms: _452  and  _453
REMARK  184  A    between atoms: _458  and  _459
REMARK  185  A    between atoms: _461  and  _463
REMARK  186  A    between atoms: _463  and  _464
REMARK  187  A    between atoms: _463  and  _466
REMARK  188  A    between atoms: _466  and  _467
REMARK  189  A    between atoms: _470  and  _472
REMARK  190  A    between atoms: _472  and  _473
REMARK  191  A    between atoms: _472  and  _475
REMARK  192  A    between atoms: _475  and  _476
REMARK  193  A    between atoms: _481  and  _482
REMARK  194  A    between atoms: _484  and  _486
REMARK  195  A    between atoms: _486  and  _487
REMARK  196  A    between atoms: _486  and  _489
REMARK  197  A    between atoms: _489  and  _490
REMARK  198  A    between atoms: _493  and  _494
REMARK  199  A    between atoms: _499  and  _501
REMARK  200  A    between atoms: _501  and  _502
REMARK  201  A    between atoms: _501  and  _504
REMARK  202  A    between atoms: _504  and  _505
REMARK  203  A    between atoms: _511  and  _513
REMARK  204  A    between atoms: _513  and  _514
REMARK  205  A    between atoms: _513  and  _516
REMARK  206  A    between atoms: _516  and  _517
REMARK  207  A    between atoms: _523  and  _525
REMARK  208  A    between atoms: _525  and  _526
REMARK  209  A    between atoms: _525  and  _528
REMARK  210  A    between atoms: _528  and  _529
REMARK  211  A    between atoms: _531  and  _533
REMARK  212  A    between atoms: _533  and  _534
REMARK  213  A    between atoms: _533  and  _536
REMARK  214  A    between atoms: _536  and  _537
REMARK  215  A    between atoms: _540  and  _542
REMARK  216  A    between atoms: _542  and  _543
REMARK  217  A    between atoms: _542  and  _545
REMARK  218  A    between atoms: _545  and  _546
REMARK  219  A    between atoms: _556  and  _558
REMARK  220  A    between atoms: _558  and  _559
REMARK  221  A    between atoms: _561  and  _563
REMARK  222  A    between atoms: _563  and  _564
REMARK  223  A    between atoms: _563  and  _566
REMARK  224  A    between atoms: _566  and  _567
REMARK  225  A    between atoms: _577  and  _579
REMARK  226  A    between atoms: _579  and  _580
REMARK  227  A    between atoms: _579  and  _582
REMARK  228  A    between atoms: _582  and  _583
REMARK  229  A    between atoms: _585  and  _587
REMARK  230  A    between atoms: _587  and  _588
REMARK  231  A    between atoms: _587  and  _590
REMARK  232  A    between atoms: _590  and  _591
REMARK  233  A    between atoms: _591  and  _592
REMARK  234  A    between atoms: _597  and  _599
REMARK  235  A    between atoms: _599  and  _600
REMARK  236  A    between atoms: _599  and  _602
REMARK  237  A    between atoms: _602  and  _603
REMARK  238  A    between atoms: _605  and  _607
REMARK  239  A    between atoms: _607  and  _608
REMARK  240  A    between atoms: _607  and  _610
REMARK  241  A    between atoms: _610  and  _611
REMARK  242  A    between atoms: _614  and  _616
REMARK  243  A    between atoms: _616  and  _617
REMARK  244  A    between atoms: _616  and  _619
REMARK  245  A    between atoms: _619  and  _620
REMARK  246  A    between atoms: _620  and  _621
REMARK  247  A    between atoms: _624  and  _626
REMARK  248  A    between atoms: _626  and  _627
REMARK  249  A    between atoms: _626  and  _629
REMARK  250  A    between atoms: _629  and  _630
REMARK  251  A    between atoms: _636  and  _638
REMARK  252  A    between atoms: _638  and  _639
REMARK  253  A    between atoms: _641  and  _643
REMARK  254  A    between atoms: _643  and  _644
REMARK  255  A    between atoms: _643  and  _646
REMARK  256  A    between atoms: _646  and  _647
REMARK  257  A    between atoms: _652  and  _653
REMARK  258  A    between atoms: _655  and  _657
REMARK  259  A    between atoms: _657  and  _658
REMARK  260  A    between atoms: _657  and  _660
REMARK  261  A    between atoms: _660  and  _661
REMARK  262  A    between atoms: _666  and  _667
REMARK  263  A    between atoms: _669  and  _671
REMARK  264  A    between atoms: _671  and  _672
REMARK  265  A    between atoms: _671  and  _674
REMARK  266  A    between atoms: _674  and  _675
REMARK  267  A    between atoms: _675  and  _676
REMARK  268  A    between atoms: _676  and  _677
REMARK                            x       y       z     vdW  Elec       q    Type
REMARK                         _______ _______ _______ _____ _____    ______ ____
ROOT
ATOM      1  CA  GLU A   1     -15.979  12.746   2.040  0.00  0.00    +0.134 C 
ENDROOT
BRANCH   1   2
ATOM      2  N   GLU A   1     -15.316  12.351   3.264  0.00  0.00    -0.239 NA
ATOM      3  H   GLU A   1     -15.044  11.356   3.394  0.00  0.00    +0.142 HD
ENDBRANCH   1   2
BRANCH   1   4
ATOM      4  C   GLU A   1     -17.393  13.318   2.237  0.00  0.00    +0.224 C 
ATOM      5  O   GLU A   1     -17.882  14.015   1.386  0.00  0.00    -0.287 OA
ENDBRANCH   1   4
BRANCH   1   6
ATOM      6  CB  GLU A   1     -15.954  11.604   1.009  0.00  0.00    +0.037 C 
BRANCH   6   7
ATOM      7  CG  GLU A   1     -14.563  11.419   0.393  0.00  0.00    +0.116 C 
BRANCH   7   8
ATOM      8  CD  GLU A   1     -14.131  12.621  -0.450  0.00  0.00    +0.365 C 
ATOM      9  OE2 GLU A   1     -14.986  13.494  -0.751  0.00  0.00    -0.246 OA
ATOM     10  OE1 GLU A   1     -12.928  12.697  -0.825  0.00  0.00    -0.246 OA
ENDBRANCH   7   8
ENDBRANCH   6   7
ENDBRANCH   1   6
TORSDOF 5
REMARK  Name = ../refined-set-2016/3zm9/3zm9_pocket.pdb
REMARK  268 active torsions:
REMARK  status: ('A' for Active; 'I' for Inactive)
REMARK    1  A    between atoms: _1  and  _3
REMARK    2  A    between atoms: _3  and  _4
REMARK    3  A    between atoms: _3  and  _6
REMARK    4  A    between atoms: _6  and  _7
REMARK    5  A    between atoms: _10  and  _12
REMARK    6  A    between atoms: _12  and  _13
REMARK    7  A    between atoms: _12  and  _15
REMARK    8  A    between atoms: _15  and  _16
REMARK    9  A    between atoms: _16  and  _17
REMARK   10  A    between atoms: _17  and  _18
REMARK   11  A    between atoms: _27  and  _29
REMARK   12  A    between atoms: _29  and  _30
REMARK   13  A    between atoms: _29  and  _32
REMARK   14  A    between atoms: _32  and  _33
REMARK   15  A    between atoms: _38  and  _40
REMARK   16  A    between atoms: _40  and  _41
REMARK   17  A    between atoms: _40  and  _43
REMARK   18  A    between atoms: _43  and  _44
REMARK   19  A    between atoms: _47  and  _49
REMARK   20  A    between atoms: _49  and  _50
REMARK   21  A    between atoms: _49  and  _52
REMARK   22  A    between atoms: _52  and  _53
REMARK   23  A    between atoms: _53  and  _54
REMARK   24  A    between atoms: _59  and  _61
REMARK   25  A    between atoms: _61  and  _62
REMARK   26  A    between atoms: _61  and  _64
REMARK   27  A    between atoms: _67  and  _69
REMARK   28  A    between atoms: _69  and  _70
REMARK   29  A    between atoms: _69  and  _72
REMARK   30  A    between atoms: _72  and  _73
REMARK   31  A    between atoms: _76  and  _78
REMARK   32  A    between atoms: _78  and  _79
REMARK   33  A    between atoms: _78  and  _81
REMARK   34  A    between atoms: _81  and  _82
REMARK   35  A    between atoms: _85  and  _87
REMARK   36  A    between atoms: _87  and  _88
REMARK   37  A    between atoms: _87  and  _90
REMARK   38  A    between atoms: _90  and  _91
REMARK   39  A    between atoms: _91  and  _92
REMARK   40  A    between atoms: _92  and  _93
REMARK   41  A    between atoms: _102  and  _104
REMARK   42  A    between atoms: _104  and  _105
REMARK   43  A    between atoms: _104  and  _107
REMARK   44  A    between atoms: _107  and  _108
REMARK   45  A    between atoms: _114  and  _116
REMARK   46  A    between atoms: _116  and  _117
REMARK   47  A    between atoms: _120  and  _121
REMARK   48  A    between atoms: _126  and  _128
REMARK   49  A    between atoms: _128  and  _129
REMARK   50  A    between atoms: _128  and  _131
REMARK   51  A    between atoms: _131  and  _132
REMARK   52  A    between atoms: _132  and  _133
REMARK   53  A    between atoms: _133  and  _134
REMARK   54  A    between atoms: _134  and  _135
REMARK   55  A    between atoms: _139  and  _141
REMARK   56  A    between atoms: _141  and  _142
REMARK   57  A    between atoms: _141  and  _144
REMARK   58  A    between atoms: _144  and  _145
REMARK   59  A    between atoms: _145  and  _146
REMARK   60  A    between atoms: _146  and  _147
REMARK   61  A    between atoms: _156  and  _158
REMARK   62  A    between atoms: _158  and  _159
REMARK   63  A    between atoms: _158  and  _161
REMARK   64  A    between atoms: _161  and  _162
REMARK   65  A    between atoms: _165  and  _167
REMARK   66  A    between atoms: _167  and  _168
REMARK   67  A    between atoms: _167  and  _170
REMARK   68  A    between atoms: _170  and  _171
REMARK   69  A    between atoms: _171  and  _172
REMARK   70  A    between atoms: _175  and  _177
REMARK   71  A    between atoms: _177  and  _178
REMARK   72  A    between atoms: _177  and  _180
REMARK   73  A    between atoms: _180  and  _181
REMARK   74  A    between atoms: _181  and  _182
REMARK   75  A    between atoms: _187  and  _189
REMARK   76  A    between atoms: _189  and  _190
REMARK   77  A    between atoms: _189  and  _192
REMARK   78  A    between atoms: _192  and  _193
REMARK   79  A    between atoms: _199  and  _201
REMARK   80  A    between atoms: _201  and  _202
REMARK   81  A    between atoms: _201  and  _204
REMARK   82  A    between atoms: _204  and  _205
REMARK   83  A    between atoms: _209  and  _210
REMARK   84  A    between atoms: _215  and  _217
REMARK   85  A    between atoms: _217  and  _218
REMARK   86  A    between atoms: _217  and  _220
REMARK   87  A    between atoms: _220  and  _221
REMARK   88  A    between atoms: _223  and  _225
REMARK   89  A    between atoms: _225  and  _226
REMARK   90  A    between atoms: _225  and  _228
REMARK   91  A    between atoms: _228  and  _229
REMARK   92  A    between atoms: _229  and  _230
REMARK   93  A    between atoms: _230  and  _231
REMARK   94  A    between atoms: _240  and  _242
REMARK   95  A    between atoms: _242  and  _243
REMARK   96  A    between atoms: _242  and  _245
REMARK   97  A    between atoms: _245  and  _246
REMARK   98  A    between atoms: _246  and  _247
REMARK   99  A    between atoms: _247  and  _248
REMARK  100  A    between atoms: _257  and  _259
REMARK  101  A    between atoms: _259  and  _260
REMARK  102  A    between atoms: _259  and  _262
REMARK  103  A    between atoms: _262  and  _263
REMARK  104  A    between atoms: _266  and  _268
REMARK  105  A    between atoms: _268  and  _269
REMARK  106  A    between atoms: _268  and  _271
REMARK  107  A    between atoms: _271  and  _272
REMARK  108  A    between atoms: _277  and  _278
REMARK  109  A    between atoms: _280  and  _282
REMARK  110  A    between atoms: _282  and  _283
REMARK  111  A    between atoms: _282  and  _285
REMARK  112  A    between atoms: _285  and  _286
REMARK  113  A    between atoms: _291  and  _293
REMARK  114  A    between atoms: _293  and  _294
REMARK  115  A    between atoms: _293  and  _296
REMARK  116  A    between atoms: _296  and  _297
REMARK  117  A    between atoms: _300  and  _302
REMARK  118  A    between atoms: _302  and  _303
REMARK  119  A    between atoms: _302  and  _305
REMARK  120  A    between atoms: _307  and  _309
REMARK  121  A    between atoms: _309  and  _310
REMARK  122  A    between atoms: _309  and  _312
REMARK  123  A    between atoms: _312  and  _313
REMARK  124  A    between atoms: _313  and  _314
REMARK  125  A    between atoms: _319  and  _321
REMARK  126  A    between atoms: _321  and  _322
REMARK  127  A    between atoms: _321  and  _324
REMARK  128  A    between atoms: _324  and  _325
REMARK  129  A    between atoms: _325  and  _326
REMARK  130  A    between atoms: _329  and  _331
REMARK  131  A    between atoms: _331  and  _332
REMARK  132  A    between atoms: _334  and  _336
REMARK  133  A    between atoms: _336  and  _337
REMARK  134  A    between atoms: _336  and  _339
REMARK  135  A    between atoms: _339  and  _340
REMARK  136  A    between atoms: _345  and  _347
REMARK  137  A    between atoms: _347  and  _348
REMARK  138  A    between atoms: _347  and  _350
REMARK  139  A    between atoms: _350  and  _351
REMARK  140  A    between atoms: _354  and  _356
REMARK  141  A    between atoms: _356  and  _357
REMARK  142  A    between atoms: _356  and  _359
REMARK  143  A    between atoms: _359  and  _360
REMARK  144  A    between atoms: _363  and  _365
REMARK  145  A    between atoms: _365  and  _366
REMARK  146  A    between atoms: _365  and  _368
REMARK  147  A    between atoms: _368  and  _369
REMARK  148  A    between atoms: _369  and  _370
REMARK  149  A    between atoms: _372  and  _374
REMARK  150  A    between atoms: _374  and  _375
REMARK  151  A    between atoms: _374  and  _377
REMARK  152  A    between atoms: _377  and  _378
REMARK  153  A    between atoms: _381  and  _383
REMARK  154  A    between atoms: _383  and  _384
REMARK  155  A    between atoms: _383  and  _386
REMARK  156  A    between atoms: _386  and  _387
REMARK  157  A    between atoms: _390  and  _392
REMARK  158  A    between atoms: _392  and  _393
REMARK  159  A    between atoms: _392  and  _395
REMARK  160  A    between atoms: _395  and  _396
REMARK  161  A    between atoms: _396  and  _397
REMARK  162  A    between atoms: _400  and  _402
REMARK  163  A    between atoms: _402  and  _403
REMARK  164  A    between atoms: _402  and  _405
REMARK  165  A    between atoms: _405  and  _406
REMARK  166  A    between atoms: _411  and  _412
REMARK  167  A    between atoms: _414  and  _416
REMARK  168  A    between atoms: _416  and  _417
REMARK  169  A    between atoms: _416  and  _419
REMARK  170  A    between atoms: _419  and  _420
REMARK  171  A    between atoms: _426  and  _428
REMARK  172  A    between atoms: _428  and  _429
REMARK  173  A    between atoms: _428  and  _431
REMARK  174  A    between atoms: _431  and  _432
REMARK  175  A    between atoms: _437  and  _439
REMARK  176  A    between atoms: _439  and  _440
REMARK  177  A    between atoms: _439  and  _442
REMARK  178  A    between atoms: _442  and  _443
REMARK  179  A    between atoms: _443  and  _444
REMARK  180  A    between atoms: _447  and  _449
REMARK  181  A    between atoms: _449  and  _450
REMARK  182  A    between atoms: _449  and  _452
REMARK  183  A    between atoms: _452  and  _453
REMARK  184  A    between atoms: _458  and  _459
REMARK  185  A    between atoms: _461  and  _463
REMARK  186  A    between atoms: _463  and  _464
REMARK  187  A    between atoms: _463  and  _466
REMARK  188  A    between atoms: _466  and  _467
REMARK  189  A    between atoms: _470  and  _472
REMARK  190  A    between atoms: _472  and  _473
REMARK  191  A    between atoms: _472  and  _475
REMARK  192  A    between atoms: _475  and  _476
REMARK  193  A    between atoms: _481  and  _482
REMARK  194  A    between atoms: _484  and  _486
REMARK  195  A    between atoms: _486  and  _487
REMARK  196  A    between atoms: _486  and  _489
REMARK  197  A    between atoms: _489  and  _490
REMARK  198  A    between atoms: _493  and  _494
REMARK  199  A    between atoms: _499  and  _501
REMARK  200  A    between atoms: _501  and  _502
REMARK  201  A    between atoms: _501  and  _504
REMARK  202  A    between atoms: _504  and  _505
REMARK  203  A    between atoms: _511  and  _513
REMARK  204  A    between atoms: _513  and  _514
REMARK  205  A    between atoms: _513  and  _516
REMARK  206  A    between atoms: _516  and  _517
REMARK  207  A    between atoms: _523  and  _525
REMARK  208  A    between atoms: _525  and  _526
REMARK  209  A    between atoms: _525  and  _528
REMARK  210  A    between atoms: _528  and  _529
REMARK  211  A    between atoms: _531  and  _533
REMARK  212  A    between atoms: _533  and  _534
REMARK  213  A    between atoms: _533  and  _536
REMARK  214  A    between atoms: _536  and  _537
REMARK  215  A    between atoms: _540  and  _542
REMARK  216  A    between atoms: _542  and  _543
REMARK  217  A    between atoms: _542  and  _545
REMARK  218  A    between atoms: _545  and  _546
REMARK  219  A    between atoms: _556  and  _558
REMARK  220  A    between atoms: _558  and  _559
REMARK  221  A    between atoms: _561  and  _563
REMARK  222  A    between atoms: _563  and  _564
REMARK  223  A    between atoms: _563  and  _566
REMARK  224  A    between atoms: _566  and  _567
REMARK  225  A    between atoms: _577  and  _579
REMARK  226  A    between atoms: _579  and  _580
REMARK  227  A    between atoms: _579  and  _582
REMARK  228  A    between atoms: _582  and  _583
REMARK  229  A    between atoms: _585  and  _587
REMARK  230  A    between atoms: _587  and  _588
REMARK  231  A    between atoms: _587  and  _590
REMARK  232  A    between atoms: _590  and  _591
REMARK  233  A    between atoms: _591  and  _592
REMARK  234  A    between atoms: _597  and  _599
REMARK  235  A    between atoms: _599  and  _600
REMARK  236  A    between atoms: _599  and  _602
REMARK  237  A    between atoms: _602  and  _603
REMARK  238  A    between atoms: _605  and  _607
REMARK  239  A    between atoms: _607  and  _608
REMARK  240  A    between atoms: _607  and  _610
REMARK  241  A    between atoms: _610  and  _611
REMARK  242  A    between atoms: _614  and  _616
REMARK  243  A    between atoms: _616  and  _617
REMARK  244  A    between atoms: _616  and  _619
REMARK  245  A    between atoms: _619  and  _620
REMARK  246  A    between atoms: _620  and  _621
REMARK  247  A    between atoms: _624  and  _626
REMARK  248  A    between atoms: _626  and  _627
REMARK  249  A    between atoms: _626  and  _629
REMARK  250  A    between atoms: _629  and  _630
REMARK  251  A    between atoms: _636  and  _638
REMARK  252  A    between atoms: _638  and  _639
REMARK  253  A    between atoms: _641  and  _643
REMARK  254  A    between atoms: _643  and  _644
REMARK  255  A    between atoms: _643  and  _646
REMARK  256  A    between atoms: _646  and  _647
REMARK  257  A    between atoms: _652  and  _653
REMARK  258  A    between atoms: _655  and  _657
REMARK  259  A    between atoms: _657  and  _658
REMARK  260  A    between atoms: _657  and  _660
REMARK  261  A    between atoms: _660  and  _661
REMARK  262  A    between atoms: _666  and  _667
REMARK  263  A    between atoms: _669  and  _671
REMARK  264  A    between atoms: _671  and  _672
REMARK  265  A    between atoms: _671  and  _674
REMARK  266  A    between atoms: _674  and  _675
REMARK  267  A    between atoms: _675  and  _676
REMARK  268  A    between atoms: _676  and  _677
REMARK                            x       y       z     vdW  Elec       q    Type
REMARK                         _______ _______ _______ _____ _____    ______ ____
ROOT
ATOM      1  C   ASP A   2     -17.915  19.234  -3.616  0.00  0.00    +0.241 C 
ATOM      2  O   ASP A   2     -17.519  20.406  -3.620  0.00  0.00    -0.273 OA
ATOM      3  N   TYR A   3     -17.676  18.371  -4.603  0.00  0.00    -0.297 N 
ATOM      4  H   TYR A   3     -18.121  17.431  -4.575  0.00  0.00    +0.150 HD
ENDROOT
BRANCH   3   5
ATOM      5  CA  TYR A   3     -16.802  18.715  -5.726  0.00  0.00    +0.153 C 
BRANCH   5   6
ATOM      6  C   TYR A   3     -17.576  19.210  -6.966  0.00  0.00    +0.241 C 
ATOM      7  N   SER A   4     -18.893  19.354  -6.829  0.00  0.00    -0.296 N 
ATOM      8  H   SER A   4     -19.325  19.196  -5.896  0.00  0.00    +0.150 HD
ATOM      9  O   TYR A   3     -16.977  19.465  -8.022  0.00  0.00    -0.273 OA
BRANCH   7  10
ATOM     10  CA  SER A   4     -19.752  19.730  -7.961  0.00  0.00    +0.166 C 
BRANCH  10  11
ATOM     11  C   SER A   4     -19.977  21.239  -7.978  0.00  0.00    +0.229 C 
ATOM     12  O   SER A   4     -20.570  21.775  -8.911  0.00  0.00    -0.286 OA
ENDBRANCH  10  11
BRANCH  10  13
ATOM     13  CB  SER A   4     -21.101  19.024  -7.858  0.00  0.00    +0.165 C 
BRANCH  13  14
ATOM     14  OG  SER A   4     -21.797  19.521  -6.725  0.00  0.00    -0.380 OA
ATOM     15  H   SER A   4     -21.265  19.346  -5.909  0.00  0.00    +0.211 HD
ENDBRANCH  13  14
ENDBRANCH  10  13
ENDBRANCH   7  10
ENDBRANCH   5   6
BRANCH   5  16
ATOM     16  CB  TYR A   3     -15.902  17.519  -6.089  0.00  0.00    +0.055 C 
BRANCH  16  17
ATOM     17  CG  TYR A   3     -15.090  16.991  -4.917  0.00  0.00    -0.020 A 
ATOM     18  CD2 TYR A   3     -14.138  17.793  -4.276  0.00  0.00    -0.001 A 
ATOM     19  CE2 TYR A   3     -13.399  17.310  -3.198  0.00  0.00    +0.036 A 
ATOM     20  CZ  TYR A   3     -13.603  16.010  -2.747  0.00  0.00    +0.134 A 
ATOM     21  CE1 TYR A   3     -14.535  15.194  -3.383  0.00  0.00    +0.036 A 
ATOM     22  CD1 TYR A   3     -15.274  15.696  -4.452  0.00  0.00    -0.001 A 
BRANCH  20  23
ATOM     23  OH  TYR A   3     -12.872  15.508  -1.686  0.00  0.00    -0.506 OA
ATOM     24  HH  TYR A   3     -12.259  16.208  -1.348  0.00  0.00    +0.292 HD
ENDBRANCH  20  23
ENDBRANCH  16  17
ENDBRANCH   5  16
ENDBRANCH   3   5
BRANCH   1  25
ATOM     25  CA  ASP A   2     -18.703  18.692  -2.446  0.00  0.00    +0.160 C 
BRANCH  25  28
ATOM     26  C   TYR A   1     -17.491  17.624  -0.639  0.00  0.00    +0.239 C 
ATOM     27  O   TYR A   1     -17.932  16.526  -0.919  0.00  0.00    -0.274 OA
ATOM     28  N   ASP A   2     -17.836  18.729  -1.285  0.00  0.00    -0.297 N 
ATOM     29  H   ASP A   2     -17.476  19.645  -0.950  0.00  0.00    +0.150 HD
BRANCH  26  30
ATOM     30  CA  TYR A   1     -16.555  17.810   0.532  0.00  0.00    +0.149 C 
BRANCH  30  31
ATOM     31  N   TYR A   1     -17.086  17.166   1.738  0.00  0.00    -0.238 NA
ATOM     32  H   TYR A   1     -17.264  16.141   1.741  0.00  0.00    +0.142 HD
ENDBRANCH  30  31
BRANCH  30  33
ATOM     33  CB  TYR A   1     -15.111  17.346   0.234  0.00  0.00    +0.053 C 
BRANCH  33  34
ATOM     34  CG  TYR A   1     -14.224  17.575   1.440  0.00  0.00    -0.020 A 
ATOM     35  CD2 TYR A   1     -13.802  16.511   2.239  0.00  0.00    -0.001 A 
ATOM     36  CE2 TYR A   1     -13.015  16.738   3.357  0.00  0.00    +0.036 A 
ATOM     37  CZ  TYR A   1     -12.671  18.041   3.706  0.00  0.00    +0.134 A 
ATOM     38  CE1 TYR A   1     -13.079  19.101   2.938  0.00  0.00    +0.036 A 
ATOM     39  CD1 TYR A   1     -13.851  18.865   1.809  0.00  0.00    -0.001 A 
BRANCH  37  40
ATOM     40  OH  TYR A   1     -11.904  18.282   4.820  0.00  0.00    -0.506 OA
ATOM     41  HH  TYR A   1     -11.758  19.257   4.914  0.00  0.00    +0.292 HD
ENDBRANCH  37  40
ENDBRANCH  33  34
ENDBRANCH  30  33
ENDBRANCH  26  30
ENDBRANCH  25  28
BRANCH  25  42
ATOM     42  CB  ASP A   2     -19.966  19.519  -2.179  0.00  0.00    +0.143 C 
BRANCH  42  43
ATOM     43  CG  ASP A   2     -20.922  19.537  -3.347  0.00  0.00    +0.367 C 
ATOM     44  OD2 ASP A   2     -22.079  19.914  -3.128  0.00  0.00    -0.246 OA
ATOM     45  OD1 ASP A   2     -20.541  19.217  -4.482  0.00  0.00    -0.246 OA
ENDBRANCH  42  43
ENDBRANCH  25  42
ENDBRANCH   1  25
TORSDOF 18
REMARK  Name = ../refined-set-2016/3zm9/3zm9_pocket.pdb
REMARK  268 active torsions:
REMARK  status: ('A' for Active; 'I' for Inactive)
REMARK    1  A    between atoms: _1  and  _3
REMARK    2  A    between atoms: _3  and  _4
REMARK    3  A    between atoms: _3  and  _6
REMARK    4  A    between atoms: _6  and  _7
REMARK    5  A    between atoms: _10  and  _12
REMARK    6  A    between atoms: _12  and  _13
REMARK    7  A    between atoms: _12  and  _15
REMARK    8  A    between atoms: _15  and  _16
REMARK    9  A    between atoms: _16  and  _17
REMARK   10  A    between atoms: _17  and  _18
REMARK   11  A    between atoms: _27  and  _29
REMARK   12  A    between atoms: _29  and  _30
REMARK   13  A    between atoms: _29  and  _32
REMARK   14  A    between atoms: _32  and  _33
REMARK   15  A    between atoms: _38  and  _40
REMARK   16  A    between atoms: _40  and  _41
REMARK   17  A    between atoms: _40  and  _43
REMARK   18  A    between atoms: _43  and  _44
REMARK   19  A    between atoms: _47  and  _49
REMARK   20  A    between atoms: _49  and  _50
REMARK   21  A    between atoms: _49  and  _52
REMARK   22  A    between atoms: _52  and  _53
REMARK   23  A    between atoms: _53  and  _54
REMARK   24  A    between atoms: _59  and  _61
REMARK   25  A    between atoms: _61  and  _62
REMARK   26  A    between atoms: _61  and  _64
REMARK   27  A    between atoms: _67  and  _69
REMARK   28  A    between atoms: _69  and  _70
REMARK   29  A    between atoms: _69  and  _72
REMARK   30  A    between atoms: _72  and  _73
REMARK   31  A    between atoms: _76  and  _78
REMARK   32  A    between atoms: _78  and  _79
REMARK   33  A    between atoms: _78  and  _81
REMARK   34  A    between atoms: _81  and  _82
REMARK   35  A    between atoms: _85  and  _87
REMARK   36  A    between atoms: _87  and  _88
REMARK   37  A    between atoms: _87  and  _90
REMARK   38  A    between atoms: _90  and  _91
REMARK   39  A    between atoms: _91  and  _92
REMARK   40  A    between atoms: _92  and  _93
REMARK   41  A    between atoms: _102  and  _104
REMARK   42  A    between atoms: _104  and  _105
REMARK   43  A    between atoms: _104  and  _107
REMARK   44  A    between atoms: _107  and  _108
REMARK   45  A    between atoms: _114  and  _116
REMARK   46  A    between atoms: _116  and  _117
REMARK   47  A    between atoms: _120  and  _121
REMARK   48  A    between atoms: _126  and  _128
REMARK   49  A    between atoms: _128  and  _129
REMARK   50  A    between atoms: _128  and  _131
REMARK   51  A    between atoms: _131  and  _132
REMARK   52  A    between atoms: _132  and  _133
REMARK   53  A    between atoms: _133  and  _134
REMARK   54  A    between atoms: _134  and  _135
REMARK   55  A    between atoms: _139  and  _141
REMARK   56  A    between atoms: _141  and  _142
REMARK   57  A    between atoms: _141  and  _144
REMARK   58  A    between atoms: _144  and  _145
REMARK   59  A    between atoms: _145  and  _146
REMARK   60  A    between atoms: _146  and  _147
REMARK   61  A    between atoms: _156  and  _158
REMARK   62  A    between atoms: _158  and  _159
REMARK   63  A    between atoms: _158  and  _161
REMARK   64  A    between atoms: _161  and  _162
REMARK   65  A    between atoms: _165  and  _167
REMARK   66  A    between atoms: _167  and  _168
REMARK   67  A    between atoms: _167  and  _170
REMARK   68  A    between atoms: _170  and  _171
REMARK   69  A    between atoms: _171  and  _172
REMARK   70  A    between atoms: _175  and  _177
REMARK   71  A    between atoms: _177  and  _178
REMARK   72  A    between atoms: _177  and  _180
REMARK   73  A    between atoms: _180  and  _181
REMARK   74  A    between atoms: _181  and  _182
REMARK   75  A    between atoms: _187  and  _189
REMARK   76  A    between atoms: _189  and  _190
REMARK   77  A    between atoms: _189  and  _192
REMARK   78  A    between atoms: _192  and  _193
REMARK   79  A    between atoms: _199  and  _201
REMARK   80  A    between atoms: _201  and  _202
REMARK   81  A    between atoms: _201  and  _204
REMARK   82  A    between atoms: _204  and  _205
REMARK   83  A    between atoms: _209  and  _210
REMARK   84  A    between atoms: _215  and  _217
REMARK   85  A    between atoms: _217  and  _218
REMARK   86  A    between atoms: _217  and  _220
REMARK   87  A    between atoms: _220  and  _221
REMARK   88  A    between atoms: _223  and  _225
REMARK   89  A    between atoms: _225  and  _226
REMARK   90  A    between atoms: _225  and  _228
REMARK   91  A    between atoms: _228  and  _229
REMARK   92  A    between atoms: _229  and  _230
REMARK   93  A    between atoms: _230  and  _231
REMARK   94  A    between atoms: _240  and  _242
REMARK   95  A    between atoms: _242  and  _243
REMARK   96  A    between atoms: _242  and  _245
REMARK   97  A    between atoms: _245  and  _246
REMARK   98  A    between atoms: _246  and  _247
REMARK   99  A    between atoms: _247  and  _248
REMARK  100  A    between atoms: _257  and  _259
REMARK  101  A    between atoms: _259  and  _260
REMARK  102  A    between atoms: _259  and  _262
REMARK  103  A    between atoms: _262  and  _263
REMARK  104  A    between atoms: _266  and  _268
REMARK  105  A    between atoms: _268  and  _269
REMARK  106  A    between atoms: _268  and  _271
REMARK  107  A    between atoms: _271  and  _272
REMARK  108  A    between atoms: _277  and  _278
REMARK  109  A    between atoms: _280  and  _282
REMARK  110  A    between atoms: _282  and  _283
REMARK  111  A    between atoms: _282  and  _285
REMARK  112  A    between atoms: _285  and  _286
REMARK  113  A    between atoms: _291  and  _293
REMARK  114  A    between atoms: _293  and  _294
REMARK  115  A    between atoms: _293  and  _296
REMARK  116  A    between atoms: _296  and  _297
REMARK  117  A    between atoms: _300  and  _302
REMARK  118  A    between atoms: _302  and  _303
REMARK  119  A    between atoms: _302  and  _305
REMARK  120  A    between atoms: _307  and  _309
REMARK  121  A    between atoms: _309  and  _310
REMARK  122  A    between atoms: _309  and  _312
REMARK  123  A    between atoms: _312  and  _313
REMARK  124  A    between atoms: _313  and  _314
REMARK  125  A    between atoms: _319  and  _321
REMARK  126  A    between atoms: _321  and  _322
REMARK  127  A    between atoms: _321  and  _324
REMARK  128  A    between atoms: _324  and  _325
REMARK  129  A    between atoms: _325  and  _326
REMARK  130  A    between atoms: _329  and  _331
REMARK  131  A    between atoms: _331  and  _332
REMARK  132  A    between atoms: _334  and  _336
REMARK  133  A    between atoms: _336  and  _337
REMARK  134  A    between atoms: _336  and  _339
REMARK  135  A    between atoms: _339  and  _340
REMARK  136  A    between atoms: _345  and  _347
REMARK  137  A    between atoms: _347  and  _348
REMARK  138  A    between atoms: _347  and  _350
REMARK  139  A    between atoms: _350  and  _351
REMARK  140  A    between atoms: _354  and  _356
REMARK  141  A    between atoms: _356  and  _357
REMARK  142  A    between atoms: _356  and  _359
REMARK  143  A    between atoms: _359  and  _360
REMARK  144  A    between atoms: _363  and  _365
REMARK  145  A    between atoms: _365  and  _366
REMARK  146  A    between atoms: _365  and  _368
REMARK  147  A    between atoms: _368  and  _369
REMARK  148  A    between atoms: _369  and  _370
REMARK  149  A    between atoms: _372  and  _374
REMARK  150  A    between atoms: _374  and  _375
REMARK  151  A    between atoms: _374  and  _377
REMARK  152  A    between atoms: _377  and  _378
REMARK  153  A    between atoms: _381  and  _383
REMARK  154  A    between atoms: _383  and  _384
REMARK  155  A    between atoms: _383  and  _386
REMARK  156  A    between atoms: _386  and  _387
REMARK  157  A    between atoms: _390  and  _392
REMARK  158  A    between atoms: _392  and  _393
REMARK  159  A    between atoms: _392  and  _395
REMARK  160  A    between atoms: _395  and  _396
REMARK  161  A    between atoms: _396  and  _397
REMARK  162  A    between atoms: _400  and  _402
REMARK  163  A    between atoms: _402  and  _403
REMARK  164  A    between atoms: _402  and  _405
REMARK  165  A    between atoms: _405  and  _406
REMARK  166  A    between atoms: _411  and  _412
REMARK  167  A    between atoms: _414  and  _416
REMARK  168  A    between atoms: _416  and  _417
REMARK  169  A    between atoms: _416  and  _419
REMARK  170  A    between atoms: _419  and  _420
REMARK  171  A    between atoms: _426  and  _428
REMARK  172  A    between atoms: _428  and  _429
REMARK  173  A    between atoms: _428  and  _431
REMARK  174  A    between atoms: _431  and  _432
REMARK  175  A    between atoms: _437  and  _439
REMARK  176  A    between atoms: _439  and  _440
REMARK  177  A    between atoms: _439  and  _442
REMARK  178  A    between atoms: _442  and  _443
REMARK  179  A    between atoms: _443  and  _444
REMARK  180  A    between atoms: _447  and  _449
REMARK  181  A    between atoms: _449  and  _450
REMARK  182  A    between atoms: _449  and  _452
REMARK  183  A    between atoms: _452  and  _453
REMARK  184  A    between atoms: _458  and  _459
REMARK  185  A    between atoms: _461  and  _463
REMARK  186  A    between atoms: _463  and  _464
REMARK  187  A    between atoms: _463  and  _466
REMARK  188  A    between atoms: _466  and  _467
REMARK  189  A    between atoms: _470  and  _472
REMARK  190  A    between atoms: _472  and  _473
REMARK  191  A    between atoms: _472  and  _475
REMARK  192  A    between atoms: _475  and  _476
REMARK  193  A    between atoms: _481  and  _482
REMARK  194  A    between atoms: _484  and  _486
REMARK  195  A    between atoms: _486  and  _487
REMARK  196  A    between atoms: _486  and  _489
REMARK  197  A    between atoms: _489  and  _490
REMARK  198  A    between atoms: _493  and  _494
REMARK  199  A    between atoms: _499  and  _501
REMARK  200  A    between atoms: _501  and  _502
REMARK  201  A    between atoms: _501  and  _504
REMARK  202  A    between atoms: _504  and  _505
REMARK  203  A    between atoms: _511  and  _513
REMARK  204  A    between atoms: _513  and  _514
REMARK  205  A    between atoms: _513  and  _516
REMARK  206  A    between atoms: _516  and  _517
REMARK  207  A    between atoms: _523  and  _525
REMARK  208  A    between atoms: _525  and  _526
REMARK  209  A    between atoms: _525  and  _528
REMARK  210  A    between atoms: _528  and  _529
REMARK  211  A    between atoms: _531  and  _533
REMARK  212  A    between atoms: _533  and  _534
REMARK  213  A    between atoms: _533  and  _536
REMARK  214  A    between atoms: _536  and  _537
REMARK  215  A    between atoms: _540  and  _542
REMARK  216  A    between atoms: _542  and  _543
REMARK  217  A    between atoms: _542  and  _545
REMARK  218  A    between atoms: _545  and  _546
REMARK  219  A    between atoms: _556  and  _558
REMARK  220  A    between atoms: _558  and  _559
REMARK  221  A    between atoms: _561  and  _563
REMARK  222  A    between atoms: _563  and  _564
REMARK  223  A    between atoms: _563  and  _566
REMARK  224  A    between atoms: _566  and  _567
REMARK  225  A    between atoms: _577  and  _579
REMARK  226  A    between atoms: _579  and  _580
REMARK  227  A    between atoms: _579  and  _582
REMARK  228  A    between atoms: _582  and  _583
REMARK  229  A    between atoms: _585  and  _587
REMARK  230  A    between atoms: _587  and  _588
REMARK  231  A    between atoms: _587  and  _590
REMARK  232  A    between atoms: _590  and  _591
REMARK  233  A    between atoms: _591  and  _592
REMARK  234  A    between atoms: _597  and  _599
REMARK  235  A    between atoms: _599  and  _600
REMARK  236  A    between atoms: _599  and  _602
REMARK  237  A    between atoms: _602  and  _603
REMARK  238  A    between atoms: _605  and  _607
REMARK  239  A    between atoms: _607  and  _608
REMARK  240  A    between atoms: _607  and  _610
REMARK  241  A    between atoms: _610  and  _611
REMARK  242  A    between atoms: _614  and  _616
REMARK  243  A    between atoms: _616  and  _617
REMARK  244  A    between atoms: _616  and  _619
REMARK  245  A    between atoms: _619  and  _620
REMARK  246  A    between atoms: _620  and  _621
REMARK  247  A    between atoms: _624  and  _626
REMARK  248  A    between atoms: _626  and  _627
REMARK  249  A    between atoms: _626  and  _629
REMARK  250  A    between atoms: _629  and  _630
REMARK  251  A    between atoms: _636  and  _638
REMARK  252  A    between atoms: _638  and  _639
REMARK  253  A    between atoms: _641  and  _643
REMARK  254  A    between atoms: _643  and  _644
REMARK  255  A    between atoms: _643  and  _646
REMARK  256  A    between atoms: _646  and  _647
REMARK  257  A    between atoms: _652  and  _653
REMARK  258  A    between atoms: _655  and  _657
REMARK  259  A    between atoms: _657  and  _658
REMARK  260  A    between atoms: _657  and  _660
REMARK  261  A    between atoms: _660  and  _661
REMARK  262  A    between atoms: _666  and  _667
REMARK  263  A    between atoms: _669  and  _671
REMARK  264  A    between atoms: _671  and  _672
REMARK  265  A    between atoms: _671  and  _674
REMARK  266  A    between atoms: _674  and  _675
REMARK  267  A    between atoms: _675  and  _676
REMARK  268  A    between atoms: _676  and  _677
REMARK                            x       y       z     vdW  Elec       q    Type
REMARK                         _______ _______ _______ _____ _____    ______ ____
ROOT
ATOM      1  CA  PHE A   2     -14.530  24.292  -7.442  0.00  0.00    +0.153 C 
ENDROOT
BRANCH   1   4
ATOM      2  C   PRO A   1     -12.590  25.511  -6.511  0.00  0.00    +0.239 C 
ATOM      3  O   PRO A   1     -11.818  24.551  -6.617  0.00  0.00    -0.274 OA
ATOM      4  N   PHE A   2     -13.879  25.460  -6.837  0.00  0.00    -0.297 N 
ATOM      5  H   PHE A   2     -14.462  26.301  -6.651  0.00  0.00    +0.150 HD
BRANCH   2  10
ATOM      6  N   PRO A   1     -13.088  27.845  -5.635  0.00  0.00    -0.210 NA
ATOM      7  CD  PRO A   1     -13.336  27.854  -4.181  0.00  0.00    +0.089 C 
ATOM      8  CG  PRO A   1     -12.271  26.948  -3.628  0.00  0.00    +0.021 C 
ATOM      9  CB  PRO A   1     -11.280  26.671  -4.705  0.00  0.00    +0.028 C 
ATOM     10  CA  PRO A   1     -12.064  26.858  -6.006  0.00  0.00    +0.149 C 
ENDBRANCH   2  10
ENDBRANCH   1   4
BRANCH   1  11
ATOM     11  C   PHE A   2     -14.759  23.149  -6.460  0.00  0.00    +0.241 C 
ATOM     12  N   PHE A   3     -14.880  23.501  -5.187  0.00  0.00    -0.298 N 
ATOM     13  H   PHE A   3     -14.620  24.471  -4.918  0.00  0.00    +0.150 HD
ATOM     14  O   PHE A   2     -14.846  21.987  -6.852  0.00  0.00    -0.273 OA
BRANCH  12  15
ATOM     15  CA  PHE A   3     -15.359  22.598  -4.143  0.00  0.00    +0.141 C 
BRANCH  15  16
ATOM     16  C   PHE A   3     -15.919  23.437  -3.001  0.00  0.00    +0.227 C 
ATOM     17  O   PHE A   3     -15.572  24.617  -2.848  0.00  0.00    -0.286 OA
ENDBRANCH  15  16
BRANCH  15  18
ATOM     18  CB  PHE A   3     -14.233  21.704  -3.601  0.00  0.00    +0.054 C 
BRANCH  18  19
ATOM     19  CG  PHE A   3     -13.239  22.444  -2.747  0.00  0.00    -0.020 A 
ATOM     20  CD2 PHE A   3     -13.407  22.518  -1.369  0.00  0.00    -0.004 A 
ATOM     21  CE2 PHE A   3     -12.498  23.219  -0.577  0.00  0.00    -0.000 A 
ATOM     22  CZ  PHE A   3     -11.413  23.850  -1.167  0.00  0.00    -0.000 A 
ATOM     23  CE1 PHE A   3     -11.238  23.782  -2.542  0.00  0.00    -0.000 A 
ATOM     24  CD1 PHE A   3     -12.143  23.079  -3.326  0.00  0.00    -0.004 A 
ENDBRANCH  18  19
ENDBRANCH  15  18
ENDBRANCH  12  15
ENDBRANCH   1  11
BRANCH   1  25
ATOM     25  CB  PHE A   2     -13.816  23.826  -8.730  0.00  0.00    +0.055 C 
BRANCH  25  26
ATOM     26  CG  PHE A   2     -13.806  24.866  -9.816  0.00  0.00    -0.020 A 
ATOM     27  CD2 PHE A   2     -12.685  25.673 -10.019  0.00  0.00    -0.004 A 
ATOM     28  CE2 PHE A   2     -12.681  26.647 -11.009  0.00  0.00    -0.000 A 
ATOM     29  CZ  PHE A   2     -13.802  26.831 -11.803  0.00  0.00    -0.000 A 
ATOM     30  CE1 PHE A   2     -14.930  26.034 -11.615  0.00  0.00    -0.000 A 
ATOM     31  CD1 PHE A   2     -14.929  25.062 -10.618  0.00  0.00    -0.004 A 
ENDBRANCH  25  26
ENDBRANCH   1  25
TORSDOF 9
REMARK  Name = ../refined-set-2016/3zm9/3zm9_pocket.pdb
REMARK  268 active torsions:
REMARK  status: ('A' for Active; 'I' for Inactive)
REMARK    1  A    between atoms: _1  and  _3
REMARK    2  A    between atoms: _3  and  _4
REMARK    3  A    between atoms: _3  and  _6
REMARK    4  A    between atoms: _6  and  _7
REMARK    5  A    between atoms: _10  and  _12
REMARK    6  A    between atoms: _12  and  _13
REMARK    7  A    between atoms: _12  and  _15
REMARK    8  A    between atoms: _15  and  _16
REMARK    9  A    between atoms: _16  and  _17
REMARK   10  A    between atoms: _17  and  _18
REMARK   11  A    between atoms: _27  and  _29
REMARK   12  A    between atoms: _29  and  _30
REMARK   13  A    between atoms: _29  and  _32
REMARK   14  A    between atoms: _32  and  _33
REMARK   15  A    between atoms: _38  and  _40
REMARK   16  A    between atoms: _40  and  _41
REMARK   17  A    between atoms: _40  and  _43
REMARK   18  A    between atoms: _43  and  _44
REMARK   19  A    between atoms: _47  and  _49
REMARK   20  A    between atoms: _49  and  _50
REMARK   21  A    between atoms: _49  and  _52
REMARK   22  A    between atoms: _52  and  _53
REMARK   23  A    between atoms: _53  and  _54
REMARK   24  A    between atoms: _59  and  _61
REMARK   25  A    between atoms: _61  and  _62
REMARK   26  A    between atoms: _61  and  _64
REMARK   27  A    between atoms: _67  and  _69
REMARK   28  A    between atoms: _69  and  _70
REMARK   29  A    between atoms: _69  and  _72
REMARK   30  A    between atoms: _72  and  _73
REMARK   31  A    between atoms: _76  and  _78
REMARK   32  A    between atoms: _78  and  _79
REMARK   33  A    between atoms: _78  and  _81
REMARK   34  A    between atoms: _81  and  _82
REMARK   35  A    between atoms: _85  and  _87
REMARK   36  A    between atoms: _87  and  _88
REMARK   37  A    between atoms: _87  and  _90
REMARK   38  A    between atoms: _90  and  _91
REMARK   39  A    between atoms: _91  and  _92
REMARK   40  A    between atoms: _92  and  _93
REMARK   41  A    between atoms: _102  and  _104
REMARK   42  A    between atoms: _104  and  _105
REMARK   43  A    between atoms: _104  and  _107
REMARK   44  A    between atoms: _107  and  _108
REMARK   45  A    between atoms: _114  and  _116
REMARK   46  A    between atoms: _116  and  _117
REMARK   47  A    between atoms: _120  and  _121
REMARK   48  A    between atoms: _126  and  _128
REMARK   49  A    between atoms: _128  and  _129
REMARK   50  A    between atoms: _128  and  _131
REMARK   51  A    between atoms: _131  and  _132
REMARK   52  A    between atoms: _132  and  _133
REMARK   53  A    between atoms: _133  and  _134
REMARK   54  A    between atoms: _134  and  _135
REMARK   55  A    between atoms: _139  and  _141
REMARK   56  A    between atoms: _141  and  _142
REMARK   57  A    between atoms: _141  and  _144
REMARK   58  A    between atoms: _144  and  _145
REMARK   59  A    between atoms: _145  and  _146
REMARK   60  A    between atoms: _146  and  _147
REMARK   61  A    between atoms: _156  and  _158
REMARK   62  A    between atoms: _158  and  _159
REMARK   63  A    between atoms: _158  and  _161
REMARK   64  A    between atoms: _161  and  _162
REMARK   65  A    between atoms: _165  and  _167
REMARK   66  A    between atoms: _167  and  _168
REMARK   67  A    between atoms: _167  and  _170
REMARK   68  A    between atoms: _170  and  _171
REMARK   69  A    between atoms: _171  and  _172
REMARK   70  A    between atoms: _175  and  _177
REMARK   71  A    between atoms: _177  and  _178
REMARK   72  A    between atoms: _177  and  _180
REMARK   73  A    between atoms: _180  and  _181
REMARK   74  A    between atoms: _181  and  _182
REMARK   75  A    between atoms: _187  and  _189
REMARK   76  A    between atoms: _189  and  _190
REMARK   77  A    between atoms: _189  and  _192
REMARK   78  A    between atoms: _192  and  _193
REMARK   79  A    between atoms: _199  and  _201
REMARK   80  A    between atoms: _201  and  _202
REMARK   81  A    between atoms: _201  and  _204
REMARK   82  A    between atoms: _204  and  _205
REMARK   83  A    between atoms: _209  and  _210
REMARK   84  A    between atoms: _215  and  _217
REMARK   85  A    between atoms: _217  and  _218
REMARK   86  A    between atoms: _217  and  _220
REMARK   87  A    between atoms: _220  and  _221
REMARK   88  A    between atoms: _223  and  _225
REMARK   89  A    between atoms: _225  and  _226
REMARK   90  A    between atoms: _225  and  _228
REMARK   91  A    between atoms: _228  and  _229
REMARK   92  A    between atoms: _229  and  _230
REMARK   93  A    between atoms: _230  and  _231
REMARK   94  A    between atoms: _240  and  _242
REMARK   95  A    between atoms: _242  and  _243
REMARK   96  A    between atoms: _242  and  _245
REMARK   97  A    between atoms: _245  and  _246
REMARK   98  A    between atoms: _246  and  _247
REMARK   99  A    between atoms: _247  and  _248
REMARK  100  A    between atoms: _257  and  _259
REMARK  101  A    between atoms: _259  and  _260
REMARK  102  A    between atoms: _259  and  _262
REMARK  103  A    between atoms: _262  and  _263
REMARK  104  A    between atoms: _266  and  _268
REMARK  105  A    between atoms: _268  and  _269
REMARK  106  A    between atoms: _268  and  _271
REMARK  107  A    between atoms: _271  and  _272
REMARK  108  A    between atoms: _277  and  _278
REMARK  109  A    between atoms: _280  and  _282
REMARK  110  A    between atoms: _282  and  _283
REMARK  111  A    between atoms: _282  and  _285
REMARK  112  A    between atoms: _285  and  _286
REMARK  113  A    between atoms: _291  and  _293
REMARK  114  A    between atoms: _293  and  _294
REMARK  115  A    between atoms: _293  and  _296
REMARK  116  A    between atoms: _296  and  _297
REMARK  117  A    between atoms: _300  and  _302
REMARK  118  A    between atoms: _302  and  _303
REMARK  119  A    between atoms: _302  and  _305
REMARK  120  A    between atoms: _307  and  _309
REMARK  121  A    between atoms: _309  and  _310
REMARK  122  A    between atoms: _309  and  _312
REMARK  123  A    between atoms: _312  and  _313
REMARK  124  A    between atoms: _313  and  _314
REMARK  125  A    between atoms: _319  and  _321
REMARK  126  A    between atoms: _321  and  _322
REMARK  127  A    between atoms: _321  and  _324
REMARK  128  A    between atoms: _324  and  _325
REMARK  129  A    between atoms: _325  and  _326
REMARK  130  A    between atoms: _329  and  _331
REMARK  131  A    between atoms: _331  and  _332
REMARK  132  A    between atoms: _334  and  _336
REMARK  133  A    between atoms: _336  and  _337
REMARK  134  A    between atoms: _336  and  _339
REMARK  135  A    between atoms: _339  and  _340
REMARK  136  A    between atoms: _345  and  _347
REMARK  137  A    between atoms: _347  and  _348
REMARK  138  A    between atoms: _347  and  _350
REMARK  139  A    between atoms: _350  and  _351
REMARK  140  A    between atoms: _354  and  _356
REMARK  141  A    between atoms: _356  and  _357
REMARK  142  A    between atoms: _356  and  _359
REMARK  143  A    between atoms: _359  and  _360
REMARK  144  A    between atoms: _363  and  _365
REMARK  145  A    between atoms: _365  and  _366
REMARK  146  A    between atoms: _365  and  _368
REMARK  147  A    between atoms: _368  and  _369
REMARK  148  A    between atoms: _369  and  _370
REMARK  149  A    between atoms: _372  and  _374
REMARK  150  A    between atoms: _374  and  _375
REMARK  151  A    between atoms: _374  and  _377
REMARK  152  A    between atoms: _377  and  _378
REMARK  153  A    between atoms: _381  and  _383
REMARK  154  A    between atoms: _383  and  _384
REMARK  155  A    between atoms: _383  and  _386
REMARK  156  A    between atoms: _386  and  _387
REMARK  157  A    between atoms: _390  and  _392
REMARK  158  A    between atoms: _392  and  _393
REMARK  159  A    between atoms: _392  and  _395
REMARK  160  A    between atoms: _395  and  _396
REMARK  161  A    between atoms: _396  and  _397
REMARK  162  A    between atoms: _400  and  _402
REMARK  163  A    between atoms: _402  and  _403
REMARK  164  A    between atoms: _402  and  _405
REMARK  165  A    between atoms: _405  and  _406
REMARK  166  A    between atoms: _411  and  _412
REMARK  167  A    between atoms: _414  and  _416
REMARK  168  A    between atoms: _416  and  _417
REMARK  169  A    between atoms: _416  and  _419
REMARK  170  A    between atoms: _419  and  _420
REMARK  171  A    between atoms: _426  and  _428
REMARK  172  A    between atoms: _428  and  _429
REMARK  173  A    between atoms: _428  and  _431
REMARK  174  A    between atoms: _431  and  _432
REMARK  175  A    between atoms: _437  and  _439
REMARK  176  A    between atoms: _439  and  _440
REMARK  177  A    between atoms: _439  and  _442
REMARK  178  A    between atoms: _442  and  _443
REMARK  179  A    between atoms: _443  and  _444
REMARK  180  A    between atoms: _447  and  _449
REMARK  181  A    between atoms: _449  and  _450
REMARK  182  A    between atoms: _449  and  _452
REMARK  183  A    between atoms: _452  and  _453
REMARK  184  A    between atoms: _458  and  _459
REMARK  185  A    between atoms: _461  and  _463
REMARK  186  A    between atoms: _463  and  _464
REMARK  187  A    between atoms: _463  and  _466
REMARK  188  A    between atoms: _466  and  _467
REMARK  189  A    between atoms: _470  and  _472
REMARK  190  A    between atoms: _472  and  _473
REMARK  191  A    between atoms: _472  and  _475
REMARK  192  A    between atoms: _475  and  _476
REMARK  193  A    between atoms: _481  and  _482
REMARK  194  A    between atoms: _484  and  _486
REMARK  195  A    between atoms: _486  and  _487
REMARK  196  A    between atoms: _486  and  _489
REMARK  197  A    between atoms: _489  and  _490
REMARK  198  A    between atoms: _493  and  _494
REMARK  199  A    between atoms: _499  and  _501
REMARK  200  A    between atoms: _501  and  _502
REMARK  201  A    between atoms: _501  and  _504
REMARK  202  A    between atoms: _504  and  _505
REMARK  203  A    between atoms: _511  and  _513
REMARK  204  A    between atoms: _513  and  _514
REMARK  205  A    between atoms: _513  and  _516
REMARK  206  A    between atoms: _516  and  _517
REMARK  207  A    between atoms: _523  and  _525
REMARK  208  A    between atoms: _525  and  _526
REMARK  209  A    between atoms: _525  and  _528
REMARK  210  A    between atoms: _528  and  _529
REMARK  211  A    between atoms: _531  and  _533
REMARK  212  A    between atoms: _533  and  _534
REMARK  213  A    between atoms: _533  and  _536
REMARK  214  A    between atoms: _536  and  _537
REMARK  215  A    between atoms: _540  and  _542
REMARK  216  A    between atoms: _542  and  _543
REMARK  217  A    between atoms: _542  and  _545
REMARK  218  A    between atoms: _545  and  _546
REMARK  219  A    between atoms: _556  and  _558
REMARK  220  A    between atoms: _558  and  _559
REMARK  221  A    between atoms: _561  and  _563
REMARK  222  A    between atoms: _563  and  _564
REMARK  223  A    between atoms: _563  and  _566
REMARK  224  A    between atoms: _566  and  _567
REMARK  225  A    between atoms: _577  and  _579
REMARK  226  A    between atoms: _579  and  _580
REMARK  227  A    between atoms: _579  and  _582
REMARK  228  A    between atoms: _582  and  _583
REMARK  229  A    between atoms: _585  and  _587
REMARK  230  A    between atoms: _587  and  _588
REMARK  231  A    between atoms: _587  and  _590
REMARK  232  A    between atoms: _590  and  _591
REMARK  233  A    between atoms: _591  and  _592
REMARK  234  A    between atoms: _597  and  _599
REMARK  235  A    between atoms: _599  and  _600
REMARK  236  A    between atoms: _599  and  _602
REMARK  237  A    between atoms: _602  and  _603
REMARK  238  A    between atoms: _605  and  _607
REMARK  239  A    between atoms: _607  and  _608
REMARK  240  A    between atoms: _607  and  _610
REMARK  241  A    between atoms: _610  and  _611
REMARK  242  A    between atoms: _614  and  _616
REMARK  243  A    between atoms: _616  and  _617
REMARK  244  A    between atoms: _616  and  _619
REMARK  245  A    between atoms: _619  and  _620
REMARK  246  A    between atoms: _620  and  _621
REMARK  247  A    between atoms: _624  and  _626
REMARK  248  A    between atoms: _626  and  _627
REMARK  249  A    between atoms: _626  and  _629
REMARK  250  A    between atoms: _629  and  _630
REMARK  251  A    between atoms: _636  and  _638
REMARK  252  A    between atoms: _638  and  _639
REMARK  253  A    between atoms: _641  and  _643
REMARK  254  A    between atoms: _643  and  _644
REMARK  255  A    between atoms: _643  and  _646
REMARK  256  A    between atoms: _646  and  _647
REMARK  257  A    between atoms: _652  and  _653
REMARK  258  A    between atoms: _655  and  _657
REMARK  259  A    between atoms: _657  and  _658
REMARK  260  A    between atoms: _657  and  _660
REMARK  261  A    between atoms: _660  and  _661
REMARK  262  A    between atoms: _666  and  _667
REMARK  263  A    between atoms: _669  and  _671
REMARK  264  A    between atoms: _671  and  _672
REMARK  265  A    between atoms: _671  and  _674
REMARK  266  A    between atoms: _674  and  _675
REMARK  267  A    between atoms: _675  and  _676
REMARK  268  A    between atoms: _676  and  _677
REMARK                            x       y       z     vdW  Elec       q    Type
REMARK                         _______ _______ _______ _____ _____    ______ ____
ROOT
ATOM      1  CA  SER A   1      -7.252  10.952   5.024  0.00  0.00    +0.163 C 
ENDROOT
BRANCH   1   2
ATOM      2  N   SER A   1      -6.556  10.487   6.239  0.00  0.00    -0.237 NA
ATOM      3  H   SER A   1      -7.102  10.119   7.044  0.00  0.00    +0.142 HD
ENDBRANCH   1   2
BRANCH   1   4
ATOM      4  C   SER A   1      -6.959  12.429   4.777  0.00  0.00    +0.227 C 
ATOM      5  O   SER A   1      -6.577  12.816   3.659  0.00  0.00    -0.287 OA
ENDBRANCH   1   4
BRANCH   1   6
ATOM      6  CB  SER A   1      -8.768  10.686   5.080  0.00  0.00    +0.162 C 
BRANCH   6   7
ATOM      7  OG  SER A   1      -9.425  11.267   3.958  0.00  0.00    -0.380 OA
ATOM      8  H   SER A   1      -9.062  10.874   3.125  0.00  0.00    +0.211 HD
ENDBRANCH   6   7
ENDBRANCH   1   6
TORSDOF 4
REMARK  Name = ../refined-set-2016/3zm9/3zm9_pocket.pdb
REMARK  268 active torsions:
REMARK  status: ('A' for Active; 'I' for Inactive)
REMARK    1  A    between atoms: _1  and  _3
REMARK    2  A    between atoms: _3  and  _4
REMARK    3  A    between atoms: _3  and  _6
REMARK    4  A    between atoms: _6  and  _7
REMARK    5  A    between atoms: _10  and  _12
REMARK    6  A    between atoms: _12  and  _13
REMARK    7  A    between atoms: _12  and  _15
REMARK    8  A    between atoms: _15  and  _16
REMARK    9  A    between atoms: _16  and  _17
REMARK   10  A    between atoms: _17  and  _18
REMARK   11  A    between atoms: _27  and  _29
REMARK   12  A    between atoms: _29  and  _30
REMARK   13  A    between atoms: _29  and  _32
REMARK   14  A    between atoms: _32  and  _33
REMARK   15  A    between atoms: _38  and  _40
REMARK   16  A    between atoms: _40  and  _41
REMARK   17  A    between atoms: _40  and  _43
REMARK   18  A    between atoms: _43  and  _44
REMARK   19  A    between atoms: _47  and  _49
REMARK   20  A    between atoms: _49  and  _50
REMARK   21  A    between atoms: _49  and  _52
REMARK   22  A    between atoms: _52  and  _53
REMARK   23  A    between atoms: _53  and  _54
REMARK   24  A    between atoms: _59  and  _61
REMARK   25  A    between atoms: _61  and  _62
REMARK   26  A    between atoms: _61  and  _64
REMARK   27  A    between atoms: _67  and  _69
REMARK   28  A    between atoms: _69  and  _70
REMARK   29  A    between atoms: _69  and  _72
REMARK   30  A    between atoms: _72  and  _73
REMARK   31  A    between atoms: _76  and  _78
REMARK   32  A    between atoms: _78  and  _79
REMARK   33  A    between atoms: _78  and  _81
REMARK   34  A    between atoms: _81  and  _82
REMARK   35  A    between atoms: _85  and  _87
REMARK   36  A    between atoms: _87  and  _88
REMARK   37  A    between atoms: _87  and  _90
REMARK   38  A    between atoms: _90  and  _91
REMARK   39  A    between atoms: _91  and  _92
REMARK   40  A    between atoms: _92  and  _93
REMARK   41  A    between atoms: _102  and  _104
REMARK   42  A    between atoms: _104  and  _105
REMARK   43  A    between atoms: _104  and  _107
REMARK   44  A    between atoms: _107  and  _108
REMARK   45  A    between atoms: _114  and  _116
REMARK   46  A    between atoms: _116  and  _117
REMARK   47  A    between atoms: _120  and  _121
REMARK   48  A    between atoms: _126  and  _128
REMARK   49  A    between atoms: _128  and  _129
REMARK   50  A    between atoms: _128  and  _131
REMARK   51  A    between atoms: _131  and  _132
REMARK   52  A    between atoms: _132  and  _133
REMARK   53  A    between atoms: _133  and  _134
REMARK   54  A    between atoms: _134  and  _135
REMARK   55  A    between atoms: _139  and  _141
REMARK   56  A    between atoms: _141  and  _142
REMARK   57  A    between atoms: _141  and  _144
REMARK   58  A    between atoms: _144  and  _145
REMARK   59  A    between atoms: _145  and  _146
REMARK   60  A    between atoms: _146  and  _147
REMARK   61  A    between atoms: _156  and  _158
REMARK   62  A    between atoms: _158  and  _159
REMARK   63  A    between atoms: _158  and  _161
REMARK   64  A    between atoms: _161  and  _162
REMARK   65  A    between atoms: _165  and  _167
REMARK   66  A    between atoms: _167  and  _168
REMARK   67  A    between atoms: _167  and  _170
REMARK   68  A    between atoms: _170  and  _171
REMARK   69  A    between atoms: _171  and  _172
REMARK   70  A    between atoms: _175  and  _177
REMARK   71  A    between atoms: _177  and  _178
REMARK   72  A    between atoms: _177  and  _180
REMARK   73  A    between atoms: _180  and  _181
REMARK   74  A    between atoms: _181  and  _182
REMARK   75  A    between atoms: _187  and  _189
REMARK   76  A    between atoms: _189  and  _190
REMARK   77  A    between atoms: _189  and  _192
REMARK   78  A    between atoms: _192  and  _193
REMARK   79  A    between atoms: _199  and  _201
REMARK   80  A    between atoms: _201  and  _202
REMARK   81  A    between atoms: _201  and  _204
REMARK   82  A    between atoms: _204  and  _205
REMARK   83  A    between atoms: _209  and  _210
REMARK   84  A    between atoms: _215  and  _217
REMARK   85  A    between atoms: _217  and  _218
REMARK   86  A    between atoms: _217  and  _220
REMARK   87  A    between atoms: _220  and  _221
REMARK   88  A    between atoms: _223  and  _225
REMARK   89  A    between atoms: _225  and  _226
REMARK   90  A    between atoms: _225  and  _228
REMARK   91  A    between atoms: _228  and  _229
REMARK   92  A    between atoms: _229  and  _230
REMARK   93  A    between atoms: _230  and  _231
REMARK   94  A    between atoms: _240  and  _242
REMARK   95  A    between atoms: _242  and  _243
REMARK   96  A    between atoms: _242  and  _245
REMARK   97  A    between atoms: _245  and  _246
REMARK   98  A    between atoms: _246  and  _247
REMARK   99  A    between atoms: _247  and  _248
REMARK  100  A    between atoms: _257  and  _259
REMARK  101  A    between atoms: _259  and  _260
REMARK  102  A    between atoms: _259  and  _262
REMARK  103  A    between atoms: _262  and  _263
REMARK  104  A    between atoms: _266  and  _268
REMARK  105  A    between atoms: _268  and  _269
REMARK  106  A    between atoms: _268  and  _271
REMARK  107  A    between atoms: _271  and  _272
REMARK  108  A    between atoms: _277  and  _278
REMARK  109  A    between atoms: _280  and  _282
REMARK  110  A    between atoms: _282  and  _283
REMARK  111  A    between atoms: _282  and  _285
REMARK  112  A    between atoms: _285  and  _286
REMARK  113  A    between atoms: _291  and  _293
REMARK  114  A    between atoms: _293  and  _294
REMARK  115  A    between atoms: _293  and  _296
REMARK  116  A    between atoms: _296  and  _297
REMARK  117  A    between atoms: _300  and  _302
REMARK  118  A    between atoms: _302  and  _303
REMARK  119  A    between atoms: _302  and  _305
REMARK  120  A    between atoms: _307  and  _309
REMARK  121  A    between atoms: _309  and  _310
REMARK  122  A    between atoms: _309  and  _312
REMARK  123  A    between atoms: _312  and  _313
REMARK  124  A    between atoms: _313  and  _314
REMARK  125  A    between atoms: _319  and  _321
REMARK  126  A    between atoms: _321  and  _322
REMARK  127  A    between atoms: _321  and  _324
REMARK  128  A    between atoms: _324  and  _325
REMARK  129  A    between atoms: _325  and  _326
REMARK  130  A    between atoms: _329  and  _331
REMARK  131  A    between atoms: _331  and  _332
REMARK  132  A    between atoms: _334  and  _336
REMARK  133  A    between atoms: _336  and  _337
REMARK  134  A    between atoms: _336  and  _339
REMARK  135  A    between atoms: _339  and  _340
REMARK  136  A    between atoms: _345  and  _347
REMARK  137  A    between atoms: _347  and  _348
REMARK  138  A    between atoms: _347  and  _350
REMARK  139  A    between atoms: _350  and  _351
REMARK  140  A    between atoms: _354  and  _356
REMARK  141  A    between atoms: _356  and  _357
REMARK  142  A    between atoms: _356  and  _359
REMARK  143  A    between atoms: _359  and  _360
REMARK  144  A    between atoms: _363  and  _365
REMARK  145  A    between atoms: _365  and  _366
REMARK  146  A    between atoms: _365  and  _368
REMARK  147  A    between atoms: _368  and  _369
REMARK  148  A    between atoms: _369  and  _370
REMARK  149  A    between atoms: _372  and  _374
REMARK  150  A    between atoms: _374  and  _375
REMARK  151  A    between atoms: _374  and  _377
REMARK  152  A    between atoms: _377  and  _378
REMARK  153  A    between atoms: _381  and  _383
REMARK  154  A    between atoms: _383  and  _384
REMARK  155  A    between atoms: _383  and  _386
REMARK  156  A    between atoms: _386  and  _387
REMARK  157  A    between atoms: _390  and  _392
REMARK  158  A    between atoms: _392  and  _393
REMARK  159  A    between atoms: _392  and  _395
REMARK  160  A    between atoms: _395  and  _396
REMARK  161  A    between atoms: _396  and  _397
REMARK  162  A    between atoms: _400  and  _402
REMARK  163  A    between atoms: _402  and  _403
REMARK  164  A    between atoms: _402  and  _405
REMARK  165  A    between atoms: _405  and  _406
REMARK  166  A    between atoms: _411  and  _412
REMARK  167  A    between atoms: _414  and  _416
REMARK  168  A    between atoms: _416  and  _417
REMARK  169  A    between atoms: _416  and  _419
REMARK  170  A    between atoms: _419  and  _420
REMARK  171  A    between atoms: _426  and  _428
REMARK  172  A    between atoms: _428  and  _429
REMARK  173  A    between atoms: _428  and  _431
REMARK  174  A    between atoms: _431  and  _432
REMARK  175  A    between atoms: _437  and  _439
REMARK  176  A    between atoms: _439  and  _440
REMARK  177  A    between atoms: _439  and  _442
REMARK  178  A    between atoms: _442  and  _443
REMARK  179  A    between atoms: _443  and  _444
REMARK  180  A    between atoms: _447  and  _449
REMARK  181  A    between atoms: _449  and  _450
REMARK  182  A    between atoms: _449  and  _452
REMARK  183  A    between atoms: _452  and  _453
REMARK  184  A    between atoms: _458  and  _459
REMARK  185  A    between atoms: _461  and  _463
REMARK  186  A    between atoms: _463  and  _464
REMARK  187  A    between atoms: _463  and  _466
REMARK  188  A    between atoms: _466  and  _467
REMARK  189  A    between atoms: _470  and  _472
REMARK  190  A    between atoms: _472  and  _473
REMARK  191  A    between atoms: _472  and  _475
REMARK  192  A    between atoms: _475  and  _476
REMARK  193  A    between atoms: _481  and  _482
REMARK  194  A    between atoms: _484  and  _486
REMARK  195  A    between atoms: _486  and  _487
REMARK  196  A    between atoms: _486  and  _489
REMARK  197  A    between atoms: _489  and  _490
REMARK  198  A    between atoms: _493  and  _494
REMARK  199  A    between atoms: _499  and  _501
REMARK  200  A    between atoms: _501  and  _502
REMARK  201  A    between atoms: _501  and  _504
REMARK  202  A    between atoms: _504  and  _505
REMARK  203  A    between atoms: _511  and  _513
REMARK  204  A    between atoms: _513  and  _514
REMARK  205  A    between atoms: _513  and  _516
REMARK  206  A    between atoms: _516  and  _517
REMARK  207  A    between atoms: _523  and  _525
REMARK  208  A    between atoms: _525  and  _526
REMARK  209  A    between atoms: _525  and  _528
REMARK  210  A    between atoms: _528  and  _529
REMARK  211  A    between atoms: _531  and  _533
REMARK  212  A    between atoms: _533  and  _534
REMARK  213  A    between atoms: _533  and  _536
REMARK  214  A    between atoms: _536  and  _537
REMARK  215  A    between atoms: _540  and  _542
REMARK  216  A    between atoms: _542  and  _543
REMARK  217  A    between atoms: _542  and  _545
REMARK  218  A    between atoms: _545  and  _546
REMARK  219  A    between atoms: _556  and  _558
REMARK  220  A    between atoms: _558  and  _559
REMARK  221  A    between atoms: _561  and  _563
REMARK  222  A    between atoms: _563  and  _564
REMARK  223  A    between atoms: _563  and  _566
REMARK  224  A    between atoms: _566  and  _567
REMARK  225  A    between atoms: _577  and  _579
REMARK  226  A    between atoms: _579  and  _580
REMARK  227  A    between atoms: _579  and  _582
REMARK  228  A    between atoms: _582  and  _583
REMARK  229  A    between atoms: _585  and  _587
REMARK  230  A    between atoms: _587  and  _588
REMARK  231  A    between atoms: _587  and  _590
REMARK  232  A    between atoms: _590  and  _591
REMARK  233  A    between atoms: _591  and  _592
REMARK  234  A    between atoms: _597  and  _599
REMARK  235  A    between atoms: _599  and  _600
REMARK  236  A    between atoms: _599  and  _602
REMARK  237  A    between atoms: _602  and  _603
REMARK  238  A    between atoms: _605  and  _607
REMARK  239  A    between atoms: _607  and  _608
REMARK  240  A    between atoms: _607  and  _610
REMARK  241  A    between atoms: _610  and  _611
REMARK  242  A    between atoms: _614  and  _616
REMARK  243  A    between atoms: _616  and  _617
REMARK  244  A    between atoms: _616  and  _619
REMARK  245  A    between atoms: _619  and  _620
REMARK  246  A    between atoms: _620  and  _621
REMARK  247  A    between atoms: _624  and  _626
REMARK  248  A    between atoms: _626  and  _627
REMARK  249  A    between atoms: _626  and  _629
REMARK  250  A    between atoms: _629  and  _630
REMARK  251  A    between atoms: _636  and  _638
REMARK  252  A    between atoms: _638  and  _639
REMARK  253  A    between atoms: _641  and  _643
REMARK  254  A    between atoms: _643  and  _644
REMARK  255  A    between atoms: _643  and  _646
REMARK  256  A    between atoms: _646  and  _647
REMARK  257  A    between atoms: _652  and  _653
REMARK  258  A    between atoms: _655  and  _657
REMARK  259  A    between atoms: _657  and  _658
REMARK  260  A    between atoms: _657  and  _660
REMARK  261  A    between atoms: _660  and  _661
REMARK  262  A    between atoms: _666  and  _667
REMARK  263  A    between atoms: _669  and  _671
REMARK  264  A    between atoms: _671  and  _672
REMARK  265  A    between atoms: _671  and  _674
REMARK  266  A    between atoms: _674  and  _675
REMARK  267  A    between atoms: _675  and  _676
REMARK  268  A    between atoms: _676  and  _677
REMARK                            x       y       z     vdW  Elec       q    Type
REMARK                         _______ _______ _______ _____ _____    ______ ____
ROOT
ATOM      1  CA  TRP A   2      -5.020  14.207   0.507  0.00  0.00    +0.153 C 
ENDROOT
BRANCH   1   3
ATOM      2  C   LEU A   1      -3.128  13.173   1.601  0.00  0.00    +0.238 C 
ATOM      3  N   TRP A   2      -4.431  13.429   1.608  0.00  0.00    -0.297 N 
ATOM      4  H   TRP A   2      -5.030  13.083   2.385  0.00  0.00    +0.150 HD
ATOM      5  O   LEU A   1      -2.378  13.571   0.693  0.00  0.00    -0.274 OA
BRANCH   2   6
ATOM      6  CA  LEU A   1      -2.565  12.342   2.765  0.00  0.00    +0.145 C 
BRANCH   6   7
ATOM      7  N   LEU A   1      -2.947  12.872   4.074  0.00  0.00    -0.238 NA
ATOM      8  H   LEU A   1      -3.519  12.286   4.715  0.00  0.00    +0.142 HD
ENDBRANCH   6   7
BRANCH   6   9
ATOM      9  CB  LEU A   1      -2.970  10.870   2.617  0.00  0.00    +0.026 C 
BRANCH   9  10
ATOM     10  CG  LEU A   1      -2.581  10.190   1.290  0.00  0.00    +0.002 C 
ATOM     11  CD2 LEU A   1      -2.878   8.714   1.414  0.00  0.00    +0.000 C 
ATOM     12  CD1 LEU A   1      -1.100  10.350   0.991  0.00  0.00    +0.000 C 
ENDBRANCH   9  10
ENDBRANCH   6   9
ENDBRANCH   2   6
ENDBRANCH   1   3
BRANCH   1  13
ATOM     13  C   TRP A   2      -4.654  15.667   0.530  0.00  0.00    +0.241 C 
ATOM     14  N   GLY A   3      -4.373  16.181   1.723  0.00  0.00    -0.296 N 
ATOM     15  H   GLY A   3      -4.579  15.618   2.573  0.00  0.00    +0.150 HD
ATOM     16  O   TRP A   2      -4.628  16.329  -0.527  0.00  0.00    -0.273 OA
BRANCH  14  17
ATOM     17  CA  GLY A   3      -3.780  17.521   1.884  0.00  0.00    +0.163 C 
BRANCH  17  18
ATOM     18  C   GLY A   3      -2.455  17.638   1.136  0.00  0.00    +0.229 C 
ATOM     19  O   GLY A   3      -2.279  18.539   0.314  0.00  0.00    -0.286 OA
ENDBRANCH  17  18
ENDBRANCH  14  17
ENDBRANCH   1  13
BRANCH   1  20
ATOM     20  CB  TRP A   2      -6.534  14.012   0.425  0.00  0.00    +0.057 C 
BRANCH  20  21
ATOM     21  CG  TRP A   2      -6.914  12.575   0.196  0.00  0.00    -0.002 A 
ATOM     22  CD1 TRP A   2      -7.845  11.815   0.892  0.00  0.00    +0.068 A 
ATOM     23  NE1 TRP A   2      -7.927  10.543   0.377  0.00  0.00    -0.352 N 
ATOM     24  HE1 TRP A   2      -8.552   9.797   0.743  0.00  0.00    +0.166 HD
ATOM     25  CE2 TRP A   2      -7.092  10.395  -0.662  0.00  0.00    +0.056 A 
ATOM     26  CZ2 TRP A   2      -6.834   9.297  -1.469  0.00  0.00    +0.017 A 
ATOM     27  CH2 TRP A   2      -5.880   9.462  -2.486  0.00  0.00    +0.001 A 
ATOM     28  CZ3 TRP A   2      -5.201  10.682  -2.676  0.00  0.00    +0.000 A 
ATOM     29  CE3 TRP A   2      -5.449  11.795  -1.856  0.00  0.00    +0.001 A 
ATOM     30  CD2 TRP A   2      -6.392  11.676  -0.841  0.00  0.00    +0.013 A 
ENDBRANCH  20  21
ENDBRANCH   1  20
TORSDOF 10
REMARK  Name = ../refined-set-2016/3zm9/3zm9_pocket.pdb
REMARK  268 active torsions:
REMARK  status: ('A' for Active; 'I' for Inactive)
REMARK    1  A    between atoms: _1  and  _3
REMARK    2  A    between atoms: _3  and  _4
REMARK    3  A    between atoms: _3  and  _6
REMARK    4  A    between atoms: _6  and  _7
REMARK    5  A    between atoms: _10  and  _12
REMARK    6  A    between atoms: _12  and  _13
REMARK    7  A    between atoms: _12  and  _15
REMARK    8  A    between atoms: _15  and  _16
REMARK    9  A    between atoms: _16  and  _17
REMARK   10  A    between atoms: _17  and  _18
REMARK   11  A    between atoms: _27  and  _29
REMARK   12  A    between atoms: _29  and  _30
REMARK   13  A    between atoms: _29  and  _32
REMARK   14  A    between atoms: _32  and  _33
REMARK   15  A    between atoms: _38  and  _40
REMARK   16  A    between atoms: _40  and  _41
REMARK   17  A    between atoms: _40  and  _43
REMARK   18  A    between atoms: _43  and  _44
REMARK   19  A    between atoms: _47  and  _49
REMARK   20  A    between atoms: _49  and  _50
REMARK   21  A    between atoms: _49  and  _52
REMARK   22  A    between atoms: _52  and  _53
REMARK   23  A    between atoms: _53  and  _54
REMARK   24  A    between atoms: _59  and  _61
REMARK   25  A    between atoms: _61  and  _62
REMARK   26  A    between atoms: _61  and  _64
REMARK   27  A    between atoms: _67  and  _69
REMARK   28  A    between atoms: _69  and  _70
REMARK   29  A    between atoms: _69  and  _72
REMARK   30  A    between atoms: _72  and  _73
REMARK   31  A    between atoms: _76  and  _78
REMARK   32  A    between atoms: _78  and  _79
REMARK   33  A    between atoms: _78  and  _81
REMARK   34  A    between atoms: _81  and  _82
REMARK   35  A    between atoms: _85  and  _87
REMARK   36  A    between atoms: _87  and  _88
REMARK   37  A    between atoms: _87  and  _90
REMARK   38  A    between atoms: _90  and  _91
REMARK   39  A    between atoms: _91  and  _92
REMARK   40  A    between atoms: _92  and  _93
REMARK   41  A    between atoms: _102  and  _104
REMARK   42  A    between atoms: _104  and  _105
REMARK   43  A    between atoms: _104  and  _107
REMARK   44  A    between atoms: _107  and  _108
REMARK   45  A    between atoms: _114  and  _116
REMARK   46  A    between atoms: _116  and  _117
REMARK   47  A    between atoms: _120  and  _121
REMARK   48  A    between atoms: _126  and  _128
REMARK   49  A    between atoms: _128  and  _129
REMARK   50  A    between atoms: _128  and  _131
REMARK   51  A    between atoms: _131  and  _132
REMARK   52  A    between atoms: _132  and  _133
REMARK   53  A    between atoms: _133  and  _134
REMARK   54  A    between atoms: _134  and  _135
REMARK   55  A    between atoms: _139  and  _141
REMARK   56  A    between atoms: _141  and  _142
REMARK   57  A    between atoms: _141  and  _144
REMARK   58  A    between atoms: _144  and  _145
REMARK   59  A    between atoms: _145  and  _146
REMARK   60  A    between atoms: _146  and  _147
REMARK   61  A    between atoms: _156  and  _158
REMARK   62  A    between atoms: _158  and  _159
REMARK   63  A    between atoms: _158  and  _161
REMARK   64  A    between atoms: _161  and  _162
REMARK   65  A    between atoms: _165  and  _167
REMARK   66  A    between atoms: _167  and  _168
REMARK   67  A    between atoms: _167  and  _170
REMARK   68  A    between atoms: _170  and  _171
REMARK   69  A    between atoms: _171  and  _172
REMARK   70  A    between atoms: _175  and  _177
REMARK   71  A    between atoms: _177  and  _178
REMARK   72  A    between atoms: _177  and  _180
REMARK   73  A    between atoms: _180  and  _181
REMARK   74  A    between atoms: _181  and  _182
REMARK   75  A    between atoms: _187  and  _189
REMARK   76  A    between atoms: _189  and  _190
REMARK   77  A    between atoms: _189  and  _192
REMARK   78  A    between atoms: _192  and  _193
REMARK   79  A    between atoms: _199  and  _201
REMARK   80  A    between atoms: _201  and  _202
REMARK   81  A    between atoms: _201  and  _204
REMARK   82  A    between atoms: _204  and  _205
REMARK   83  A    between atoms: _209  and  _210
REMARK   84  A    between atoms: _215  and  _217
REMARK   85  A    between atoms: _217  and  _218
REMARK   86  A    between atoms: _217  and  _220
REMARK   87  A    between atoms: _220  and  _221
REMARK   88  A    between atoms: _223  and  _225
REMARK   89  A    between atoms: _225  and  _226
REMARK   90  A    between atoms: _225  and  _228
REMARK   91  A    between atoms: _228  and  _229
REMARK   92  A    between atoms: _229  and  _230
REMARK   93  A    between atoms: _230  and  _231
REMARK   94  A    between atoms: _240  and  _242
REMARK   95  A    between atoms: _242  and  _243
REMARK   96  A    between atoms: _242  and  _245
REMARK   97  A    between atoms: _245  and  _246
REMARK   98  A    between atoms: _246  and  _247
REMARK   99  A    between atoms: _247  and  _248
REMARK  100  A    between atoms: _257  and  _259
REMARK  101  A    between atoms: _259  and  _260
REMARK  102  A    between atoms: _259  and  _262
REMARK  103  A    between atoms: _262  and  _263
REMARK  104  A    between atoms: _266  and  _268
REMARK  105  A    between atoms: _268  and  _269
REMARK  106  A    between atoms: _268  and  _271
REMARK  107  A    between atoms: _271  and  _272
REMARK  108  A    between atoms: _277  and  _278
REMARK  109  A    between atoms: _280  and  _282
REMARK  110  A    between atoms: _282  and  _283
REMARK  111  A    between atoms: _282  and  _285
REMARK  112  A    between atoms: _285  and  _286
REMARK  113  A    between atoms: _291  and  _293
REMARK  114  A    between atoms: _293  and  _294
REMARK  115  A    between atoms: _293  and  _296
REMARK  116  A    between atoms: _296  and  _297
REMARK  117  A    between atoms: _300  and  _302
REMARK  118  A    between atoms: _302  and  _303
REMARK  119  A    between atoms: _302  and  _305
REMARK  120  A    between atoms: _307  and  _309
REMARK  121  A    between atoms: _309  and  _310
REMARK  122  A    between atoms: _309  and  _312
REMARK  123  A    between atoms: _312  and  _313
REMARK  124  A    between atoms: _313  and  _314
REMARK  125  A    between atoms: _319  and  _321
REMARK  126  A    between atoms: _321  and  _322
REMARK  127  A    between atoms: _321  and  _324
REMARK  128  A    between atoms: _324  and  _325
REMARK  129  A    between atoms: _325  and  _326
REMARK  130  A    between atoms: _329  and  _331
REMARK  131  A    between atoms: _331  and  _332
REMARK  132  A    between atoms: _334  and  _336
REMARK  133  A    between atoms: _336  and  _337
REMARK  134  A    between atoms: _336  and  _339
REMARK  135  A    between atoms: _339  and  _340
REMARK  136  A    between atoms: _345  and  _347
REMARK  137  A    between atoms: _347  and  _348
REMARK  138  A    between atoms: _347  and  _350
REMARK  139  A    between atoms: _350  and  _351
REMARK  140  A    between atoms: _354  and  _356
REMARK  141  A    between atoms: _356  and  _357
REMARK  142  A    between atoms: _356  and  _359
REMARK  143  A    between atoms: _359  and  _360
REMARK  144  A    between atoms: _363  and  _365
REMARK  145  A    between atoms: _365  and  _366
REMARK  146  A    between atoms: _365  and  _368
REMARK  147  A    between atoms: _368  and  _369
REMARK  148  A    between atoms: _369  and  _370
REMARK  149  A    between atoms: _372  and  _374
REMARK  150  A    between atoms: _374  and  _375
REMARK  151  A    between atoms: _374  and  _377
REMARK  152  A    between atoms: _377  and  _378
REMARK  153  A    between atoms: _381  and  _383
REMARK  154  A    between atoms: _383  and  _384
REMARK  155  A    between atoms: _383  and  _386
REMARK  156  A    between atoms: _386  and  _387
REMARK  157  A    between atoms: _390  and  _392
REMARK  158  A    between atoms: _392  and  _393
REMARK  159  A    between atoms: _392  and  _395
REMARK  160  A    between atoms: _395  and  _396
REMARK  161  A    between atoms: _396  and  _397
REMARK  162  A    between atoms: _400  and  _402
REMARK  163  A    between atoms: _402  and  _403
REMARK  164  A    between atoms: _402  and  _405
REMARK  165  A    between atoms: _405  and  _406
REMARK  166  A    between atoms: _411  and  _412
REMARK  167  A    between atoms: _414  and  _416
REMARK  168  A    between atoms: _416  and  _417
REMARK  169  A    between atoms: _416  and  _419
REMARK  170  A    between atoms: _419  and  _420
REMARK  171  A    between atoms: _426  and  _428
REMARK  172  A    between atoms: _428  and  _429
REMARK  173  A    between atoms: _428  and  _431
REMARK  174  A    between atoms: _431  and  _432
REMARK  175  A    between atoms: _437  and  _439
REMARK  176  A    between atoms: _439  and  _440
REMARK  177  A    between atoms: _439  and  _442
REMARK  178  A    between atoms: _442  and  _443
REMARK  179  A    between atoms: _443  and  _444
REMARK  180  A    between atoms: _447  and  _449
REMARK  181  A    between atoms: _449  and  _450
REMARK  182  A    between atoms: _449  and  _452
REMARK  183  A    between atoms: _452  and  _453
REMARK  184  A    between atoms: _458  and  _459
REMARK  185  A    between atoms: _461  and  _463
REMARK  186  A    between atoms: _463  and  _464
REMARK  187  A    between atoms: _463  and  _466
REMARK  188  A    between atoms: _466  and  _467
REMARK  189  A    between atoms: _470  and  _472
REMARK  190  A    between atoms: _472  and  _473
REMARK  191  A    between atoms: _472  and  _475
REMARK  192  A    between atoms: _475  and  _476
REMARK  193  A    between atoms: _481  and  _482
REMARK  194  A    between atoms: _484  and  _486
REMARK  195  A    between atoms: _486  and  _487
REMARK  196  A    between atoms: _486  and  _489
REMARK  197  A    between atoms: _489  and  _490
REMARK  198  A    between atoms: _493  and  _494
REMARK  199  A    between atoms: _499  and  _501
REMARK  200  A    between atoms: _501  and  _502
REMARK  201  A    between atoms: _501  and  _504
REMARK  202  A    between atoms: _504  and  _505
REMARK  203  A    between atoms: _511  and  _513
REMARK  204  A    between atoms: _513  and  _514
REMARK  205  A    between atoms: _513  and  _516
REMARK  206  A    between atoms: _516  and  _517
REMARK  207  A    between atoms: _523  and  _525
REMARK  208  A    between atoms: _525  and  _526
REMARK  209  A    between atoms: _525  and  _528
REMARK  210  A    between atoms: _528  and  _529
REMARK  211  A    between atoms: _531  and  _533
REMARK  212  A    between atoms: _533  and  _534
REMARK  213  A    between atoms: _533  and  _536
REMARK  214  A    between atoms: _536  and  _537
REMARK  215  A    between atoms: _540  and  _542
REMARK  216  A    between atoms: _542  and  _543
REMARK  217  A    between atoms: _542  and  _545
REMARK  218  A    between atoms: _545  and  _546
REMARK  219  A    between atoms: _556  and  _558
REMARK  220  A    between atoms: _558  and  _559
REMARK  221  A    between atoms: _561  and  _563
REMARK  222  A    between atoms: _563  and  _564
REMARK  223  A    between atoms: _563  and  _566
REMARK  224  A    between atoms: _566  and  _567
REMARK  225  A    between atoms: _577  and  _579
REMARK  226  A    between atoms: _579  and  _580
REMARK  227  A    between atoms: _579  and  _582
REMARK  228  A    between atoms: _582  and  _583
REMARK  229  A    between atoms: _585  and  _587
REMARK  230  A    between atoms: _587  and  _588
REMARK  231  A    between atoms: _587  and  _590
REMARK  232  A    between atoms: _590  and  _591
REMARK  233  A    between atoms: _591  and  _592
REMARK  234  A    between atoms: _597  and  _599
REMARK  235  A    between atoms: _599  and  _600
REMARK  236  A    between atoms: _599  and  _602
REMARK  237  A    between atoms: _602  and  _603
REMARK  238  A    between atoms: _605  and  _607
REMARK  239  A    between atoms: _607  and  _608
REMARK  240  A    between atoms: _607  and  _610
REMARK  241  A    between atoms: _610  and  _611
REMARK  242  A    between atoms: _614  and  _616
REMARK  243  A    between atoms: _616  and  _617
REMARK  244  A    between atoms: _616  and  _619
REMARK  245  A    between atoms: _619  and  _620
REMARK  246  A    between atoms: _620  and  _621
REMARK  247  A    between atoms: _624  and  _626
REMARK  248  A    between atoms: _626  and  _627
REMARK  249  A    between atoms: _626  and  _629
REMARK  250  A    between atoms: _629  and  _630
REMARK  251  A    between atoms: _636  and  _638
REMARK  252  A    between atoms: _638  and  _639
REMARK  253  A    between atoms: _641  and  _643
REMARK  254  A    between atoms: _643  and  _644
REMARK  255  A    between atoms: _643  and  _646
REMARK  256  A    between atoms: _646  and  _647
REMARK  257  A    between atoms: _652  and  _653
REMARK  258  A    between atoms: _655  and  _657
REMARK  259  A    between atoms: _657  and  _658
REMARK  260  A    between atoms: _657  and  _660
REMARK  261  A    between atoms: _660  and  _661
REMARK  262  A    between atoms: _666  and  _667
REMARK  263  A    between atoms: _669  and  _671
REMARK  264  A    between atoms: _671  and  _672
REMARK  265  A    between atoms: _671  and  _674
REMARK  266  A    between atoms: _674  and  _675
REMARK  267  A    between atoms: _675  and  _676
REMARK  268  A    between atoms: _676  and  _677
REMARK                            x       y       z     vdW  Elec       q    Type
REMARK                         _______ _______ _______ _____ _____    ______ ____
ROOT
ATOM      1  CA  TRP A   1      -1.538  15.236  -2.555  0.00  0.00    +0.149 C 
ENDROOT
BRANCH   1   2
ATOM      2  C   TRP A   1      -1.954  16.477  -3.290  0.00  0.00    +0.239 C 
ATOM      3  N   SER A   2      -2.807  17.272  -2.642  0.00  0.00    -0.296 N 
ATOM      4  H   SER A   2      -3.074  17.039  -1.664  0.00  0.00    +0.150 HD
ATOM      5  O   TRP A   1      -1.510  16.723  -4.430  0.00  0.00    -0.274 OA
BRANCH   3   6
ATOM      6  CA  SER A   2      -3.374  18.457  -3.268  0.00  0.00    +0.166 C 
BRANCH   6   7
ATOM      7  C   SER A   2      -2.291  19.517  -3.513  0.00  0.00    +0.229 C 
ATOM      8  O   SER A   2      -2.282  20.161  -4.568  0.00  0.00    -0.286 OA
ENDBRANCH   6   7
BRANCH   6   9
ATOM      9  CB  SER A   2      -4.530  19.017  -2.430  0.00  0.00    +0.165 C 
BRANCH   9  10
ATOM     10  OG  SER A   2      -5.314  19.918  -3.208  0.00  0.00    -0.380 OA
ATOM     11  H   SER A   2      -4.745  20.667  -3.516  0.00  0.00    +0.211 HD
ENDBRANCH   9  10
ENDBRANCH   6   9
ENDBRANCH   3   6
ENDBRANCH   1   2
BRANCH   1  12
ATOM     12  N   TRP A   1      -1.247  15.539  -1.152  0.00  0.00    -0.238 NA
ATOM     13  H   TRP A   1      -1.737  14.995  -0.413  0.00  0.00    +0.142 HD
ENDBRANCH   1  12
BRANCH   1  14
ATOM     14  CB  TRP A   1      -2.632  14.168  -2.632  0.00  0.00    +0.054 C 
BRANCH  14  15
ATOM     15  CG  TRP A   1      -3.214  13.915  -4.001  0.00  0.00    -0.002 A 
ATOM     16  CD2 TRP A   1      -4.394  14.554  -4.592  0.00  0.00    +0.013 A 
ATOM     17  CE3 TRP A   1      -5.304  15.532  -4.161  0.00  0.00    +0.001 A 
ATOM     18  CZ3 TRP A   1      -6.345  15.901  -5.022  0.00  0.00    +0.000 A 
ATOM     19  CH2 TRP A   1      -6.478  15.331  -6.307  0.00  0.00    +0.001 A 
ATOM     20  CZ2 TRP A   1      -5.594  14.343  -6.774  0.00  0.00    +0.017 A 
ATOM     21  CE2 TRP A   1      -4.558  13.965  -5.921  0.00  0.00    +0.056 A 
ATOM     22  NE1 TRP A   1      -3.555  13.067  -6.088  0.00  0.00    -0.352 N 
ATOM     23  HE1 TRP A   1      -3.407  12.494  -6.944  0.00  0.00    +0.166 HD
ATOM     24  CD1 TRP A   1      -2.763  13.021  -4.968  0.00  0.00    +0.068 A 
ENDBRANCH  14  15
ENDBRANCH   1  14
TORSDOF 8
REMARK  Name = ../refined-set-2016/3zm9/3zm9_pocket.pdb
REMARK  268 active torsions:
REMARK  status: ('A' for Active; 'I' for Inactive)
REMARK    1  A    between atoms: _1  and  _3
REMARK    2  A    between atoms: _3  and  _4
REMARK    3  A    between atoms: _3  and  _6
REMARK    4  A    between atoms: _6  and  _7
REMARK    5  A    between atoms: _10  and  _12
REMARK    6  A    between atoms: _12  and  _13
REMARK    7  A    between atoms: _12  and  _15
REMARK    8  A    between atoms: _15  and  _16
REMARK    9  A    between atoms: _16  and  _17
REMARK   10  A    between atoms: _17  and  _18
REMARK   11  A    between atoms: _27  and  _29
REMARK   12  A    between atoms: _29  and  _30
REMARK   13  A    between atoms: _29  and  _32
REMARK   14  A    between atoms: _32  and  _33
REMARK   15  A    between atoms: _38  and  _40
REMARK   16  A    between atoms: _40  and  _41
REMARK   17  A    between atoms: _40  and  _43
REMARK   18  A    between atoms: _43  and  _44
REMARK   19  A    between atoms: _47  and  _49
REMARK   20  A    between atoms: _49  and  _50
REMARK   21  A    between atoms: _49  and  _52
REMARK   22  A    between atoms: _52  and  _53
REMARK   23  A    between atoms: _53  and  _54
REMARK   24  A    between atoms: _59  and  _61
REMARK   25  A    between atoms: _61  and  _62
REMARK   26  A    between atoms: _61  and  _64
REMARK   27  A    between atoms: _67  and  _69
REMARK   28  A    between atoms: _69  and  _70
REMARK   29  A    between atoms: _69  and  _72
REMARK   30  A    between atoms: _72  and  _73
REMARK   31  A    between atoms: _76  and  _78
REMARK   32  A    between atoms: _78  and  _79
REMARK   33  A    between atoms: _78  and  _81
REMARK   34  A    between atoms: _81  and  _82
REMARK   35  A    between atoms: _85  and  _87
REMARK   36  A    between atoms: _87  and  _88
REMARK   37  A    between atoms: _87  and  _90
REMARK   38  A    between atoms: _90  and  _91
REMARK   39  A    between atoms: _91  and  _92
REMARK   40  A    between atoms: _92  and  _93
REMARK   41  A    between atoms: _102  and  _104
REMARK   42  A    between atoms: _104  and  _105
REMARK   43  A    between atoms: _104  and  _107
REMARK   44  A    between atoms: _107  and  _108
REMARK   45  A    between atoms: _114  and  _116
REMARK   46  A    between atoms: _116  and  _117
REMARK   47  A    between atoms: _120  and  _121
REMARK   48  A    between atoms: _126  and  _128
REMARK   49  A    between atoms: _128  and  _129
REMARK   50  A    between atoms: _128  and  _131
REMARK   51  A    between atoms: _131  and  _132
REMARK   52  A    between atoms: _132  and  _133
REMARK   53  A    between atoms: _133  and  _134
REMARK   54  A    between atoms: _134  and  _135
REMARK   55  A    between atoms: _139  and  _141
REMARK   56  A    between atoms: _141  and  _142
REMARK   57  A    between atoms: _141  and  _144
REMARK   58  A    between atoms: _144  and  _145
REMARK   59  A    between atoms: _145  and  _146
REMARK   60  A    between atoms: _146  and  _147
REMARK   61  A    between atoms: _156  and  _158
REMARK   62  A    between atoms: _158  and  _159
REMARK   63  A    between atoms: _158  and  _161
REMARK   64  A    between atoms: _161  and  _162
REMARK   65  A    between atoms: _165  and  _167
REMARK   66  A    between atoms: _167  and  _168
REMARK   67  A    between atoms: _167  and  _170
REMARK   68  A    between atoms: _170  and  _171
REMARK   69  A    between atoms: _171  and  _172
REMARK   70  A    between atoms: _175  and  _177
REMARK   71  A    between atoms: _177  and  _178
REMARK   72  A    between atoms: _177  and  _180
REMARK   73  A    between atoms: _180  and  _181
REMARK   74  A    between atoms: _181  and  _182
REMARK   75  A    between atoms: _187  and  _189
REMARK   76  A    between atoms: _189  and  _190
REMARK   77  A    between atoms: _189  and  _192
REMARK   78  A    between atoms: _192  and  _193
REMARK   79  A    between atoms: _199  and  _201
REMARK   80  A    between atoms: _201  and  _202
REMARK   81  A    between atoms: _201  and  _204
REMARK   82  A    between atoms: _204  and  _205
REMARK   83  A    between atoms: _209  and  _210
REMARK   84  A    between atoms: _215  and  _217
REMARK   85  A    between atoms: _217  and  _218
REMARK   86  A    between atoms: _217  and  _220
REMARK   87  A    between atoms: _220  and  _221
REMARK   88  A    between atoms: _223  and  _225
REMARK   89  A    between atoms: _225  and  _226
REMARK   90  A    between atoms: _225  and  _228
REMARK   91  A    between atoms: _228  and  _229
REMARK   92  A    between atoms: _229  and  _230
REMARK   93  A    between atoms: _230  and  _231
REMARK   94  A    between atoms: _240  and  _242
REMARK   95  A    between atoms: _242  and  _243
REMARK   96  A    between atoms: _242  and  _245
REMARK   97  A    between atoms: _245  and  _246
REMARK   98  A    between atoms: _246  and  _247
REMARK   99  A    between atoms: _247  and  _248
REMARK  100  A    between atoms: _257  and  _259
REMARK  101  A    between atoms: _259  and  _260
REMARK  102  A    between atoms: _259  and  _262
REMARK  103  A    between atoms: _262  and  _263
REMARK  104  A    between atoms: _266  and  _268
REMARK  105  A    between atoms: _268  and  _269
REMARK  106  A    between atoms: _268  and  _271
REMARK  107  A    between atoms: _271  and  _272
REMARK  108  A    between atoms: _277  and  _278
REMARK  109  A    between atoms: _280  and  _282
REMARK  110  A    between atoms: _282  and  _283
REMARK  111  A    between atoms: _282  and  _285
REMARK  112  A    between atoms: _285  and  _286
REMARK  113  A    between atoms: _291  and  _293
REMARK  114  A    between atoms: _293  and  _294
REMARK  115  A    between atoms: _293  and  _296
REMARK  116  A    between atoms: _296  and  _297
REMARK  117  A    between atoms: _300  and  _302
REMARK  118  A    between atoms: _302  and  _303
REMARK  119  A    between atoms: _302  and  _305
REMARK  120  A    between atoms: _307  and  _309
REMARK  121  A    between atoms: _309  and  _310
REMARK  122  A    between atoms: _309  and  _312
REMARK  123  A    between atoms: _312  and  _313
REMARK  124  A    between atoms: _313  and  _314
REMARK  125  A    between atoms: _319  and  _321
REMARK  126  A    between atoms: _321  and  _322
REMARK  127  A    between atoms: _321  and  _324
REMARK  128  A    between atoms: _324  and  _325
REMARK  129  A    between atoms: _325  and  _326
REMARK  130  A    between atoms: _329  and  _331
REMARK  131  A    between atoms: _331  and  _332
REMARK  132  A    between atoms: _334  and  _336
REMARK  133  A    between atoms: _336  and  _337
REMARK  134  A    between atoms: _336  and  _339
REMARK  135  A    between atoms: _339  and  _340
REMARK  136  A    between atoms: _345  and  _347
REMARK  137  A    between atoms: _347  and  _348
REMARK  138  A    between atoms: _347  and  _350
REMARK  139  A    between atoms: _350  and  _351
REMARK  140  A    between atoms: _354  and  _356
REMARK  141  A    between atoms: _356  and  _357
REMARK  142  A    between atoms: _356  and  _359
REMARK  143  A    between atoms: _359  and  _360
REMARK  144  A    between atoms: _363  and  _365
REMARK  145  A    between atoms: _365  and  _366
REMARK  146  A    between atoms: _365  and  _368
REMARK  147  A    between atoms: _368  and  _369
REMARK  148  A    between atoms: _369  and  _370
REMARK  149  A    between atoms: _372  and  _374
REMARK  150  A    between atoms: _374  and  _375
REMARK  151  A    between atoms: _374  and  _377
REMARK  152  A    between atoms: _377  and  _378
REMARK  153  A    between atoms: _381  and  _383
REMARK  154  A    between atoms: _383  and  _384
REMARK  155  A    between atoms: _383  and  _386
REMARK  156  A    between atoms: _386  and  _387
REMARK  157  A    between atoms: _390  and  _392
REMARK  158  A    between atoms: _392  and  _393
REMARK  159  A    between atoms: _392  and  _395
REMARK  160  A    between atoms: _395  and  _396
REMARK  161  A    between atoms: _396  and  _397
REMARK  162  A    between atoms: _400  and  _402
REMARK  163  A    between atoms: _402  and  _403
REMARK  164  A    between atoms: _402  and  _405
REMARK  165  A    between atoms: _405  and  _406
REMARK  166  A    between atoms: _411  and  _412
REMARK  167  A    between atoms: _414  and  _416
REMARK  168  A    between atoms: _416  and  _417
REMARK  169  A    between atoms: _416  and  _419
REMARK  170  A    between atoms: _419  and  _420
REMARK  171  A    between atoms: _426  and  _428
REMARK  172  A    between atoms: _428  and  _429
REMARK  173  A    between atoms: _428  and  _431
REMARK  174  A    between atoms: _431  and  _432
REMARK  175  A    between atoms: _437  and  _439
REMARK  176  A    between atoms: _439  and  _440
REMARK  177  A    between atoms: _439  and  _442
REMARK  178  A    between atoms: _442  and  _443
REMARK  179  A    between atoms: _443  and  _444
REMARK  180  A    between atoms: _447  and  _449
REMARK  181  A    between atoms: _449  and  _450
REMARK  182  A    between atoms: _449  and  _452
REMARK  183  A    between atoms: _452  and  _453
REMARK  184  A    between atoms: _458  and  _459
REMARK  185  A    between atoms: _461  and  _463
REMARK  186  A    between atoms: _463  and  _464
REMARK  187  A    between atoms: _463  and  _466
REMARK  188  A    between atoms: _466  and  _467
REMARK  189  A    between atoms: _470  and  _472
REMARK  190  A    between atoms: _472  and  _473
REMARK  191  A    between atoms: _472  and  _475
REMARK  192  A    between atoms: _475  and  _476
REMARK  193  A    between atoms: _481  and  _482
REMARK  194  A    between atoms: _484  and  _486
REMARK  195  A    between atoms: _486  and  _487
REMARK  196  A    between atoms: _486  and  _489
REMARK  197  A    between atoms: _489  and  _490
REMARK  198  A    between atoms: _493  and  _494
REMARK  199  A    between atoms: _499  and  _501
REMARK  200  A    between atoms: _501  and  _502
REMARK  201  A    between atoms: _501  and  _504
REMARK  202  A    between atoms: _504  and  _505
REMARK  203  A    between atoms: _511  and  _513
REMARK  204  A    between atoms: _513  and  _514
REMARK  205  A    between atoms: _513  and  _516
REMARK  206  A    between atoms: _516  and  _517
REMARK  207  A    between atoms: _523  and  _525
REMARK  208  A    between atoms: _525  and  _526
REMARK  209  A    between atoms: _525  and  _528
REMARK  210  A    between atoms: _528  and  _529
REMARK  211  A    between atoms: _531  and  _533
REMARK  212  A    between atoms: _533  and  _534
REMARK  213  A    between atoms: _533  and  _536
REMARK  214  A    between atoms: _536  and  _537
REMARK  215  A    between atoms: _540  and  _542
REMARK  216  A    between atoms: _542  and  _543
REMARK  217  A    between atoms: _542  and  _545
REMARK  218  A    between atoms: _545  and  _546
REMARK  219  A    between atoms: _556  and  _558
REMARK  220  A    between atoms: _558  and  _559
REMARK  221  A    between atoms: _561  and  _563
REMARK  222  A    between atoms: _563  and  _564
REMARK  223  A    between atoms: _563  and  _566
REMARK  224  A    between atoms: _566  and  _567
REMARK  225  A    between atoms: _577  and  _579
REMARK  226  A    between atoms: _579  and  _580
REMARK  227  A    between atoms: _579  and  _582
REMARK  228  A    between atoms: _582  and  _583
REMARK  229  A    between atoms: _585  and  _587
REMARK  230  A    between atoms: _587  and  _588
REMARK  231  A    between atoms: _587  and  _590
REMARK  232  A    between atoms: _590  and  _591
REMARK  233  A    between atoms: _591  and  _592
REMARK  234  A    between atoms: _597  and  _599
REMARK  235  A    between atoms: _599  and  _600
REMARK  236  A    between atoms: _599  and  _602
REMARK  237  A    between atoms: _602  and  _603
REMARK  238  A    between atoms: _605  and  _607
REMARK  239  A    between atoms: _607  and  _608
REMARK  240  A    between atoms: _607  and  _610
REMARK  241  A    between atoms: _610  and  _611
REMARK  242  A    between atoms: _614  and  _616
REMARK  243  A    between atoms: _616  and  _617
REMARK  244  A    between atoms: _616  and  _619
REMARK  245  A    between atoms: _619  and  _620
REMARK  246  A    between atoms: _620  and  _621
REMARK  247  A    between atoms: _624  and  _626
REMARK  248  A    between atoms: _626  and  _627
REMARK  249  A    between atoms: _626  and  _629
REMARK  250  A    between atoms: _629  and  _630
REMARK  251  A    between atoms: _636  and  _638
REMARK  252  A    between atoms: _638  and  _639
REMARK  253  A    between atoms: _641  and  _643
REMARK  254  A    between atoms: _643  and  _644
REMARK  255  A    between atoms: _643  and  _646
REMARK  256  A    between atoms: _646  and  _647
REMARK  257  A    between atoms: _652  and  _653
REMARK  258  A    between atoms: _655  and  _657
REMARK  259  A    between atoms: _657  and  _658
REMARK  260  A    between atoms: _657  and  _660
REMARK  261  A    between atoms: _660  and  _661
REMARK  262  A    between atoms: _666  and  _667
REMARK  263  A    between atoms: _669  and  _671
REMARK  264  A    between atoms: _671  and  _672
REMARK  265  A    between atoms: _671  and  _674
REMARK  266  A    between atoms: _674  and  _675
REMARK  267  A    between atoms: _675  and  _676
REMARK  268  A    between atoms: _676  and  _677
REMARK                            x       y       z     vdW  Elec       q    Type
REMARK                         _______ _______ _______ _____ _____    ______ ____
ROOT
ATOM      1  CB  GLN A   1      -2.797  18.321  -7.546  0.00  0.00    +0.035 C 
ENDROOT
BRANCH   1   2
ATOM      2  CA  GLN A   1      -1.352  18.802  -7.727  0.00  0.00    +0.134 C 
BRANCH   2   3
ATOM      3  N   GLN A   1      -0.522  18.545  -6.537  0.00  0.00    -0.239 NA
ATOM      4  H   GLN A   1      -0.973  18.241  -5.651  0.00  0.00    +0.142 HD
ENDBRANCH   2   3
BRANCH   2   5
ATOM      5  C   GLN A   1      -1.340  20.289  -8.109  0.00  0.00    +0.224 C 
ATOM      6  O   GLN A   1      -1.437  20.630  -9.288  0.00  0.00    -0.287 OA
ENDBRANCH   2   5
ENDBRANCH   1   2
BRANCH   1   7
ATOM      7  CG  GLN A   1      -3.005  16.856  -7.156  0.00  0.00    +0.087 C 
BRANCH   7   8
ATOM      8  CD  GLN A   1      -2.161  15.864  -7.935  0.00  0.00    +0.219 C 
ATOM      9  NE2 GLN A   1      -1.315  15.114  -7.219  0.00  0.00    -0.329 N 
ATOM     10 HE21 GLN A   1      -1.267  15.227  -6.186  0.00  0.00    +0.145 HD
ATOM     11 HE22 GLN A   1      -0.706  14.419  -7.695  0.00  0.00    +0.145 HD
ATOM     12  OE1 GLN A   1      -2.258  15.771  -9.160  0.00  0.00    -0.275 OA
ENDBRANCH   7   8
ENDBRANCH   1   7
TORSDOF 5
REMARK  Name = ../refined-set-2016/3zm9/3zm9_pocket.pdb
REMARK  268 active torsions:
REMARK  status: ('A' for Active; 'I' for Inactive)
REMARK    1  A    between atoms: _1  and  _3
REMARK    2  A    between atoms: _3  and  _4
REMARK    3  A    between atoms: _3  and  _6
REMARK    4  A    between atoms: _6  and  _7
REMARK    5  A    between atoms: _10  and  _12
REMARK    6  A    between atoms: _12  and  _13
REMARK    7  A    between atoms: _12  and  _15
REMARK    8  A    between atoms: _15  and  _16
REMARK    9  A    between atoms: _16  and  _17
REMARK   10  A    between atoms: _17  and  _18
REMARK   11  A    between atoms: _27  and  _29
REMARK   12  A    between atoms: _29  and  _30
REMARK   13  A    between atoms: _29  and  _32
REMARK   14  A    between atoms: _32  and  _33
REMARK   15  A    between atoms: _38  and  _40
REMARK   16  A    between atoms: _40  and  _41
REMARK   17  A    between atoms: _40  and  _43
REMARK   18  A    between atoms: _43  and  _44
REMARK   19  A    between atoms: _47  and  _49
REMARK   20  A    between atoms: _49  and  _50
REMARK   21  A    between atoms: _49  and  _52
REMARK   22  A    between atoms: _52  and  _53
REMARK   23  A    between atoms: _53  and  _54
REMARK   24  A    between atoms: _59  and  _61
REMARK   25  A    between atoms: _61  and  _62
REMARK   26  A    between atoms: _61  and  _64
REMARK   27  A    between atoms: _67  and  _69
REMARK   28  A    between atoms: _69  and  _70
REMARK   29  A    between atoms: _69  and  _72
REMARK   30  A    between atoms: _72  and  _73
REMARK   31  A    between atoms: _76  and  _78
REMARK   32  A    between atoms: _78  and  _79
REMARK   33  A    between atoms: _78  and  _81
REMARK   34  A    between atoms: _81  and  _82
REMARK   35  A    between atoms: _85  and  _87
REMARK   36  A    between atoms: _87  and  _88
REMARK   37  A    between atoms: _87  and  _90
REMARK   38  A    between atoms: _90  and  _91
REMARK   39  A    between atoms: _91  and  _92
REMARK   40  A    between atoms: _92  and  _93
REMARK   41  A    between atoms: _102  and  _104
REMARK   42  A    between atoms: _104  and  _105
REMARK   43  A    between atoms: _104  and  _107
REMARK   44  A    between atoms: _107  and  _108
REMARK   45  A    between atoms: _114  and  _116
REMARK   46  A    between atoms: _116  and  _117
REMARK   47  A    between atoms: _120  and  _121
REMARK   48  A    between atoms: _126  and  _128
REMARK   49  A    between atoms: _128  and  _129
REMARK   50  A    between atoms: _128  and  _131
REMARK   51  A    between atoms: _131  and  _132
REMARK   52  A    between atoms: _132  and  _133
REMARK   53  A    between atoms: _133  and  _134
REMARK   54  A    between atoms: _134  and  _135
REMARK   55  A    between atoms: _139  and  _141
REMARK   56  A    between atoms: _141  and  _142
REMARK   57  A    between atoms: _141  and  _144
REMARK   58  A    between atoms: _144  and  _145
REMARK   59  A    between atoms: _145  and  _146
REMARK   60  A    between atoms: _146  and  _147
REMARK   61  A    between atoms: _156  and  _158
REMARK   62  A    between atoms: _158  and  _159
REMARK   63  A    between atoms: _158  and  _161
REMARK   64  A    between atoms: _161  and  _162
REMARK   65  A    between atoms: _165  and  _167
REMARK   66  A    between atoms: _167  and  _168
REMARK   67  A    between atoms: _167  and  _170
REMARK   68  A    between atoms: _170  and  _171
REMARK   69  A    between atoms: _171  and  _172
REMARK   70  A    between atoms: _175  and  _177
REMARK   71  A    between atoms: _177  and  _178
REMARK   72  A    between atoms: _177  and  _180
REMARK   73  A    between atoms: _180  and  _181
REMARK   74  A    between atoms: _181  and  _182
REMARK   75  A    between atoms: _187  and  _189
REMARK   76  A    between atoms: _189  and  _190
REMARK   77  A    between atoms: _189  and  _192
REMARK   78  A    between atoms: _192  and  _193
REMARK   79  A    between atoms: _199  and  _201
REMARK   80  A    between atoms: _201  and  _202
REMARK   81  A    between atoms: _201  and  _204
REMARK   82  A    between atoms: _204  and  _205
REMARK   83  A    between atoms: _209  and  _210
REMARK   84  A    between atoms: _215  and  _217
REMARK   85  A    between atoms: _217  and  _218
REMARK   86  A    between atoms: _217  and  _220
REMARK   87  A    between atoms: _220  and  _221
REMARK   88  A    between atoms: _223  and  _225
REMARK   89  A    between atoms: _225  and  _226
REMARK   90  A    between atoms: _225  and  _228
REMARK   91  A    between atoms: _228  and  _229
REMARK   92  A    between atoms: _229  and  _230
REMARK   93  A    between atoms: _230  and  _231
REMARK   94  A    between atoms: _240  and  _242
REMARK   95  A    between atoms: _242  and  _243
REMARK   96  A    between atoms: _242  and  _245
REMARK   97  A    between atoms: _245  and  _246
REMARK   98  A    between atoms: _246  and  _247
REMARK   99  A    between atoms: _247  and  _248
REMARK  100  A    between atoms: _257  and  _259
REMARK  101  A    between atoms: _259  and  _260
REMARK  102  A    between atoms: _259  and  _262
REMARK  103  A    between atoms: _262  and  _263
REMARK  104  A    between atoms: _266  and  _268
REMARK  105  A    between atoms: _268  and  _269
REMARK  106  A    between atoms: _268  and  _271
REMARK  107  A    between atoms: _271  and  _272
REMARK  108  A    between atoms: _277  and  _278
REMARK  109  A    between atoms: _280  and  _282
REMARK  110  A    between atoms: _282  and  _283
REMARK  111  A    between atoms: _282  and  _285
REMARK  112  A    between atoms: _285  and  _286
REMARK  113  A    between atoms: _291  and  _293
REMARK  114  A    between atoms: _293  and  _294
REMARK  115  A    between atoms: _293  and  _296
REMARK  116  A    between atoms: _296  and  _297
REMARK  117  A    between atoms: _300  and  _302
REMARK  118  A    between atoms: _302  and  _303
REMARK  119  A    between atoms: _302  and  _305
REMARK  120  A    between atoms: _307  and  _309
REMARK  121  A    between atoms: _309  and  _310
REMARK  122  A    between atoms: _309  and  _312
REMARK  123  A    between atoms: _312  and  _313
REMARK  124  A    between atoms: _313  and  _314
REMARK  125  A    between atoms: _319  and  _321
REMARK  126  A    between atoms: _321  and  _322
REMARK  127  A    between atoms: _321  and  _324
REMARK  128  A    between atoms: _324  and  _325
REMARK  129  A    between atoms: _325  and  _326
REMARK  130  A    between atoms: _329  and  _331
REMARK  131  A    between atoms: _331  and  _332
REMARK  132  A    between atoms: _334  and  _336
REMARK  133  A    between atoms: _336  and  _337
REMARK  134  A    between atoms: _336  and  _339
REMARK  135  A    between atoms: _339  and  _340
REMARK  136  A    between atoms: _345  and  _347
REMARK  137  A    between atoms: _347  and  _348
REMARK  138  A    between atoms: _347  and  _350
REMARK  139  A    between atoms: _350  and  _351
REMARK  140  A    between atoms: _354  and  _356
REMARK  141  A    between atoms: _356  and  _357
REMARK  142  A    between atoms: _356  and  _359
REMARK  143  A    between atoms: _359  and  _360
REMARK  144  A    between atoms: _363  and  _365
REMARK  145  A    between atoms: _365  and  _366
REMARK  146  A    between atoms: _365  and  _368
REMARK  147  A    between atoms: _368  and  _369
REMARK  148  A    between atoms: _369  and  _370
REMARK  149  A    between atoms: _372  and  _374
REMARK  150  A    between atoms: _374  and  _375
REMARK  151  A    between atoms: _374  and  _377
REMARK  152  A    between atoms: _377  and  _378
REMARK  153  A    between atoms: _381  and  _383
REMARK  154  A    between atoms: _383  and  _384
REMARK  155  A    between atoms: _383  and  _386
REMARK  156  A    between atoms: _386  and  _387
REMARK  157  A    between atoms: _390  and  _392
REMARK  158  A    between atoms: _392  and  _393
REMARK  159  A    between atoms: _392  and  _395
REMARK  160  A    between atoms: _395  and  _396
REMARK  161  A    between atoms: _396  and  _397
REMARK  162  A    between atoms: _400  and  _402
REMARK  163  A    between atoms: _402  and  _403
REMARK  164  A    between atoms: _402  and  _405
REMARK  165  A    between atoms: _405  and  _406
REMARK  166  A    between atoms: _411  and  _412
REMARK  167  A    between atoms: _414  and  _416
REMARK  168  A    between atoms: _416  and  _417
REMARK  169  A    between atoms: _416  and  _419
REMARK  170  A    between atoms: _419  and  _420
REMARK  171  A    between atoms: _426  and  _428
REMARK  172  A    between atoms: _428  and  _429
REMARK  173  A    between atoms: _428  and  _431
REMARK  174  A    between atoms: _431  and  _432
REMARK  175  A    between atoms: _437  and  _439
REMARK  176  A    between atoms: _439  and  _440
REMARK  177  A    between atoms: _439  and  _442
REMARK  178  A    between atoms: _442  and  _443
REMARK  179  A    between atoms: _443  and  _444
REMARK  180  A    between atoms: _447  and  _449
REMARK  181  A    between atoms: _449  and  _450
REMARK  182  A    between atoms: _449  and  _452
REMARK  183  A    between atoms: _452  and  _453
REMARK  184  A    between atoms: _458  and  _459
REMARK  185  A    between atoms: _461  and  _463
REMARK  186  A    between atoms: _463  and  _464
REMARK  187  A    between atoms: _463  and  _466
REMARK  188  A    between atoms: _466  and  _467
REMARK  189  A    between atoms: _470  and  _472
REMARK  190  A    between atoms: _472  and  _473
REMARK  191  A    between atoms: _472  and  _475
REMARK  192  A    between atoms: _475  and  _476
REMARK  193  A    between atoms: _481  and  _482
REMARK  194  A    between atoms: _484  and  _486
REMARK  195  A    between atoms: _486  and  _487
REMARK  196  A    between atoms: _486  and  _489
REMARK  197  A    between atoms: _489  and  _490
REMARK  198  A    between atoms: _493  and  _494
REMARK  199  A    between atoms: _499  and  _501
REMARK  200  A    between atoms: _501  and  _502
REMARK  201  A    between atoms: _501  and  _504
REMARK  202  A    between atoms: _504  and  _505
REMARK  203  A    between atoms: _511  and  _513
REMARK  204  A    between atoms: _513  and  _514
REMARK  205  A    between atoms: _513  and  _516
REMARK  206  A    between atoms: _516  and  _517
REMARK  207  A    between atoms: _523  and  _525
REMARK  208  A    between atoms: _525  and  _526
REMARK  209  A    between atoms: _525  and  _528
REMARK  210  A    between atoms: _528  and  _529
REMARK  211  A    between atoms: _531  and  _533
REMARK  212  A    between atoms: _533  and  _534
REMARK  213  A    between atoms: _533  and  _536
REMARK  214  A    between atoms: _536  and  _537
REMARK  215  A    between atoms: _540  and  _542
REMARK  216  A    between atoms: _542  and  _543
REMARK  217  A    between atoms: _542  and  _545
REMARK  218  A    between atoms: _545  and  _546
REMARK  219  A    between atoms: _556  and  _558
REMARK  220  A    between atoms: _558  and  _559
REMARK  221  A    between atoms: _561  and  _563
REMARK  222  A    between atoms: _563  and  _564
REMARK  223  A    between atoms: _563  and  _566
REMARK  224  A    between atoms: _566  and  _567
REMARK  225  A    between atoms: _577  and  _579
REMARK  226  A    between atoms: _579  and  _580
REMARK  227  A    between atoms: _579  and  _582
REMARK  228  A    between atoms: _582  and  _583
REMARK  229  A    between atoms: _585  and  _587
REMARK  230  A    between atoms: _587  and  _588
REMARK  231  A    between atoms: _587  and  _590
REMARK  232  A    between atoms: _590  and  _591
REMARK  233  A    between atoms: _591  and  _592
REMARK  234  A    between atoms: _597  and  _599
REMARK  235  A    between atoms: _599  and  _600
REMARK  236  A    between atoms: _599  and  _602
REMARK  237  A    between atoms: _602  and  _603
REMARK  238  A    between atoms: _605  and  _607
REMARK  239  A    between atoms: _607  and  _608
REMARK  240  A    between atoms: _607  and  _610
REMARK  241  A    between atoms: _610  and  _611
REMARK  242  A    between atoms: _614  and  _616
REMARK  243  A    between atoms: _616  and  _617
REMARK  244  A    between atoms: _616  and  _619
REMARK  245  A    between atoms: _619  and  _620
REMARK  246  A    between atoms: _620  and  _621
REMARK  247  A    between atoms: _624  and  _626
REMARK  248  A    between atoms: _626  and  _627
REMARK  249  A    between atoms: _626  and  _629
REMARK  250  A    between atoms: _629  and  _630
REMARK  251  A    between atoms: _636  and  _638
REMARK  252  A    between atoms: _638  and  _639
REMARK  253  A    between atoms: _641  and  _643
REMARK  254  A    between atoms: _643  and  _644
REMARK  255  A    between atoms: _643  and  _646
REMARK  256  A    between atoms: _646  and  _647
REMARK  257  A    between atoms: _652  and  _653
REMARK  258  A    between atoms: _655  and  _657
REMARK  259  A    between atoms: _657  and  _658
REMARK  260  A    between atoms: _657  and  _660
REMARK  261  A    between atoms: _660  and  _661
REMARK  262  A    between atoms: _666  and  _667
REMARK  263  A    between atoms: _669  and  _671
REMARK  264  A    between atoms: _671  and  _672
REMARK  265  A    between atoms: _671  and  _674
REMARK  266  A    between atoms: _674  and  _675
REMARK  267  A    between atoms: _675  and  _676
REMARK  268  A    between atoms: _676  and  _677
REMARK                            x       y       z     vdW  Elec       q    Type
REMARK                         _______ _______ _______ _____ _____    ______ ____
ROOT
ATOM      1  CA  SER A   1      -1.979  19.272 -12.492  0.00  0.00    +0.163 C 
ENDROOT
BRANCH   1   2
ATOM      2  N   SER A   1      -0.725  19.536 -11.772  0.00  0.00    -0.237 NA
ATOM      3  H   SER A   1      -0.750  19.936 -10.812  0.00  0.00    +0.142 HD
ENDBRANCH   1   2
BRANCH   1   4
ATOM      4  C   SER A   1      -2.389  20.401 -13.433  0.00  0.00    +0.227 C 
ATOM      5  O   SER A   1      -2.154  21.576 -13.147  0.00  0.00    -0.287 OA
ENDBRANCH   1   4
BRANCH   1   6
ATOM      6  CB  SER A   1      -3.114  18.992 -11.519  0.00  0.00    +0.162 C 
BRANCH   6   7
ATOM      7  OG  SER A   1      -4.343  18.785 -12.202  0.00  0.00    -0.380 OA
ATOM      8  H   SER A   1      -5.059  18.606 -11.543  0.00  0.00    +0.211 HD
ENDBRANCH   6   7
ENDBRANCH   1   6
TORSDOF 4
REMARK  Name = ../refined-set-2016/3zm9/3zm9_pocket.pdb
REMARK  268 active torsions:
REMARK  status: ('A' for Active; 'I' for Inactive)
REMARK    1  A    between atoms: _1  and  _3
REMARK    2  A    between atoms: _3  and  _4
REMARK    3  A    between atoms: _3  and  _6
REMARK    4  A    between atoms: _6  and  _7
REMARK    5  A    between atoms: _10  and  _12
REMARK    6  A    between atoms: _12  and  _13
REMARK    7  A    between atoms: _12  and  _15
REMARK    8  A    between atoms: _15  and  _16
REMARK    9  A    between atoms: _16  and  _17
REMARK   10  A    between atoms: _17  and  _18
REMARK   11  A    between atoms: _27  and  _29
REMARK   12  A    between atoms: _29  and  _30
REMARK   13  A    between atoms: _29  and  _32
REMARK   14  A    between atoms: _32  and  _33
REMARK   15  A    between atoms: _38  and  _40
REMARK   16  A    between atoms: _40  and  _41
REMARK   17  A    between atoms: _40  and  _43
REMARK   18  A    between atoms: _43  and  _44
REMARK   19  A    between atoms: _47  and  _49
REMARK   20  A    between atoms: _49  and  _50
REMARK   21  A    between atoms: _49  and  _52
REMARK   22  A    between atoms: _52  and  _53
REMARK   23  A    between atoms: _53  and  _54
REMARK   24  A    between atoms: _59  and  _61
REMARK   25  A    between atoms: _61  and  _62
REMARK   26  A    between atoms: _61  and  _64
REMARK   27  A    between atoms: _67  and  _69
REMARK   28  A    between atoms: _69  and  _70
REMARK   29  A    between atoms: _69  and  _72
REMARK   30  A    between atoms: _72  and  _73
REMARK   31  A    between atoms: _76  and  _78
REMARK   32  A    between atoms: _78  and  _79
REMARK   33  A    between atoms: _78  and  _81
REMARK   34  A    between atoms: _81  and  _82
REMARK   35  A    between atoms: _85  and  _87
REMARK   36  A    between atoms: _87  and  _88
REMARK   37  A    between atoms: _87  and  _90
REMARK   38  A    between atoms: _90  and  _91
REMARK   39  A    between atoms: _91  and  _92
REMARK   40  A    between atoms: _92  and  _93
REMARK   41  A    between atoms: _102  and  _104
REMARK   42  A    between atoms: _104  and  _105
REMARK   43  A    between atoms: _104  and  _107
REMARK   44  A    between atoms: _107  and  _108
REMARK   45  A    between atoms: _114  and  _116
REMARK   46  A    between atoms: _116  and  _117
REMARK   47  A    between atoms: _120  and  _121
REMARK   48  A    between atoms: _126  and  _128
REMARK   49  A    between atoms: _128  and  _129
REMARK   50  A    between atoms: _128  and  _131
REMARK   51  A    between atoms: _131  and  _132
REMARK   52  A    between atoms: _132  and  _133
REMARK   53  A    between atoms: _133  and  _134
REMARK   54  A    between atoms: _134  and  _135
REMARK   55  A    between atoms: _139  and  _141
REMARK   56  A    between atoms: _141  and  _142
REMARK   57  A    between atoms: _141  and  _144
REMARK   58  A    between atoms: _144  and  _145
REMARK   59  A    between atoms: _145  and  _146
REMARK   60  A    between atoms: _146  and  _147
REMARK   61  A    between atoms: _156  and  _158
REMARK   62  A    between atoms: _158  and  _159
REMARK   63  A    between atoms: _158  and  _161
REMARK   64  A    between atoms: _161  and  _162
REMARK   65  A    between atoms: _165  and  _167
REMARK   66  A    between atoms: _167  and  _168
REMARK   67  A    between atoms: _167  and  _170
REMARK   68  A    between atoms: _170  and  _171
REMARK   69  A    between atoms: _171  and  _172
REMARK   70  A    between atoms: _175  and  _177
REMARK   71  A    between atoms: _177  and  _178
REMARK   72  A    between atoms: _177  and  _180
REMARK   73  A    between atoms: _180  and  _181
REMARK   74  A    between atoms: _181  and  _182
REMARK   75  A    between atoms: _187  and  _189
REMARK   76  A    between atoms: _189  and  _190
REMARK   77  A    between atoms: _189  and  _192
REMARK   78  A    between atoms: _192  and  _193
REMARK   79  A    between atoms: _199  and  _201
REMARK   80  A    between atoms: _201  and  _202
REMARK   81  A    between atoms: _201  and  _204
REMARK   82  A    between atoms: _204  and  _205
REMARK   83  A    between atoms: _209  and  _210
REMARK   84  A    between atoms: _215  and  _217
REMARK   85  A    between atoms: _217  and  _218
REMARK   86  A    between atoms: _217  and  _220
REMARK   87  A    between atoms: _220  and  _221
REMARK   88  A    between atoms: _223  and  _225
REMARK   89  A    between atoms: _225  and  _226
REMARK   90  A    between atoms: _225  and  _228
REMARK   91  A    between atoms: _228  and  _229
REMARK   92  A    between atoms: _229  and  _230
REMARK   93  A    between atoms: _230  and  _231
REMARK   94  A    between atoms: _240  and  _242
REMARK   95  A    between atoms: _242  and  _243
REMARK   96  A    between atoms: _242  and  _245
REMARK   97  A    between atoms: _245  and  _246
REMARK   98  A    between atoms: _246  and  _247
REMARK   99  A    between atoms: _247  and  _248
REMARK  100  A    between atoms: _257  and  _259
REMARK  101  A    between atoms: _259  and  _260
REMARK  102  A    between atoms: _259  and  _262
REMARK  103  A    between atoms: _262  and  _263
REMARK  104  A    between atoms: _266  and  _268
REMARK  105  A    between atoms: _268  and  _269
REMARK  106  A    between atoms: _268  and  _271
REMARK  107  A    between atoms: _271  and  _272
REMARK  108  A    between atoms: _277  and  _278
REMARK  109  A    between atoms: _280  and  _282
REMARK  110  A    between atoms: _282  and  _283
REMARK  111  A    between atoms: _282  and  _285
REMARK  112  A    between atoms: _285  and  _286
REMARK  113  A    between atoms: _291  and  _293
REMARK  114  A    between atoms: _293  and  _294
REMARK  115  A    between atoms: _293  and  _296
REMARK  116  A    between atoms: _296  and  _297
REMARK  117  A    between atoms: _300  and  _302
REMARK  118  A    between atoms: _302  and  _303
REMARK  119  A    between atoms: _302  and  _305
REMARK  120  A    between atoms: _307  and  _309
REMARK  121  A    between atoms: _309  and  _310
REMARK  122  A    between atoms: _309  and  _312
REMARK  123  A    between atoms: _312  and  _313
REMARK  124  A    between atoms: _313  and  _314
REMARK  125  A    between atoms: _319  and  _321
REMARK  126  A    between atoms: _321  and  _322
REMARK  127  A    between atoms: _321  and  _324
REMARK  128  A    between atoms: _324  and  _325
REMARK  129  A    between atoms: _325  and  _326
REMARK  130  A    between atoms: _329  and  _331
REMARK  131  A    between atoms: _331  and  _332
REMARK  132  A    between atoms: _334  and  _336
REMARK  133  A    between atoms: _336  and  _337
REMARK  134  A    between atoms: _336  and  _339
REMARK  135  A    between atoms: _339  and  _340
REMARK  136  A    between atoms: _345  and  _347
REMARK  137  A    between atoms: _347  and  _348
REMARK  138  A    between atoms: _347  and  _350
REMARK  139  A    between atoms: _350  and  _351
REMARK  140  A    between atoms: _354  and  _356
REMARK  141  A    between atoms: _356  and  _357
REMARK  142  A    between atoms: _356  and  _359
REMARK  143  A    between atoms: _359  and  _360
REMARK  144  A    between atoms: _363  and  _365
REMARK  145  A    between atoms: _365  and  _366
REMARK  146  A    between atoms: _365  and  _368
REMARK  147  A    between atoms: _368  and  _369
REMARK  148  A    between atoms: _369  and  _370
REMARK  149  A    between atoms: _372  and  _374
REMARK  150  A    between atoms: _374  and  _375
REMARK  151  A    between atoms: _374  and  _377
REMARK  152  A    between atoms: _377  and  _378
REMARK  153  A    between atoms: _381  and  _383
REMARK  154  A    between atoms: _383  and  _384
REMARK  155  A    between atoms: _383  and  _386
REMARK  156  A    between atoms: _386  and  _387
REMARK  157  A    between atoms: _390  and  _392
REMARK  158  A    between atoms: _392  and  _393
REMARK  159  A    between atoms: _392  and  _395
REMARK  160  A    between atoms: _395  and  _396
REMARK  161  A    between atoms: _396  and  _397
REMARK  162  A    between atoms: _400  and  _402
REMARK  163  A    between atoms: _402  and  _403
REMARK  164  A    between atoms: _402  and  _405
REMARK  165  A    between atoms: _405  and  _406
REMARK  166  A    between atoms: _411  and  _412
REMARK  167  A    between atoms: _414  and  _416
REMARK  168  A    between atoms: _416  and  _417
REMARK  169  A    between atoms: _416  and  _419
REMARK  170  A    between atoms: _419  and  _420
REMARK  171  A    between atoms: _426  and  _428
REMARK  172  A    between atoms: _428  and  _429
REMARK  173  A    between atoms: _428  and  _431
REMARK  174  A    between atoms: _431  and  _432
REMARK  175  A    between atoms: _437  and  _439
REMARK  176  A    between atoms: _439  and  _440
REMARK  177  A    between atoms: _439  and  _442
REMARK  178  A    between atoms: _442  and  _443
REMARK  179  A    between atoms: _443  and  _444
REMARK  180  A    between atoms: _447  and  _449
REMARK  181  A    between atoms: _449  and  _450
REMARK  182  A    between atoms: _449  and  _452
REMARK  183  A    between atoms: _452  and  _453
REMARK  184  A    between atoms: _458  and  _459
REMARK  185  A    between atoms: _461  and  _463
REMARK  186  A    between atoms: _463  and  _464
REMARK  187  A    between atoms: _463  and  _466
REMARK  188  A    between atoms: _466  and  _467
REMARK  189  A    between atoms: _470  and  _472
REMARK  190  A    between atoms: _472  and  _473
REMARK  191  A    between atoms: _472  and  _475
REMARK  192  A    between atoms: _475  and  _476
REMARK  193  A    between atoms: _481  and  _482
REMARK  194  A    between atoms: _484  and  _486
REMARK  195  A    between atoms: _486  and  _487
REMARK  196  A    between atoms: _486  and  _489
REMARK  197  A    between atoms: _489  and  _490
REMARK  198  A    between atoms: _493  and  _494
REMARK  199  A    between atoms: _499  and  _501
REMARK  200  A    between atoms: _501  and  _502
REMARK  201  A    between atoms: _501  and  _504
REMARK  202  A    between atoms: _504  and  _505
REMARK  203  A    between atoms: _511  and  _513
REMARK  204  A    between atoms: _513  and  _514
REMARK  205  A    between atoms: _513  and  _516
REMARK  206  A    between atoms: _516  and  _517
REMARK  207  A    between atoms: _523  and  _525
REMARK  208  A    between atoms: _525  and  _526
REMARK  209  A    between atoms: _525  and  _528
REMARK  210  A    between atoms: _528  and  _529
REMARK  211  A    between atoms: _531  and  _533
REMARK  212  A    between atoms: _533  and  _534
REMARK  213  A    between atoms: _533  and  _536
REMARK  214  A    between atoms: _536  and  _537
REMARK  215  A    between atoms: _540  and  _542
REMARK  216  A    between atoms: _542  and  _543
REMARK  217  A    between atoms: _542  and  _545
REMARK  218  A    between atoms: _545  and  _546
REMARK  219  A    between atoms: _556  and  _558
REMARK  220  A    between atoms: _558  and  _559
REMARK  221  A    between atoms: _561  and  _563
REMARK  222  A    between atoms: _563  and  _564
REMARK  223  A    between atoms: _563  and  _566
REMARK  224  A    between atoms: _566  and  _567
REMARK  225  A    between atoms: _577  and  _579
REMARK  226  A    between atoms: _579  and  _580
REMARK  227  A    between atoms: _579  and  _582
REMARK  228  A    between atoms: _582  and  _583
REMARK  229  A    between atoms: _585  and  _587
REMARK  230  A    between atoms: _587  and  _588
REMARK  231  A    between atoms: _587  and  _590
REMARK  232  A    between atoms: _590  and  _591
REMARK  233  A    between atoms: _591  and  _592
REMARK  234  A    between atoms: _597  and  _599
REMARK  235  A    between atoms: _599  and  _600
REMARK  236  A    between atoms: _599  and  _602
REMARK  237  A    between atoms: _602  and  _603
REMARK  238  A    between atoms: _605  and  _607
REMARK  239  A    between atoms: _607  and  _608
REMARK  240  A    between atoms: _607  and  _610
REMARK  241  A    between atoms: _610  and  _611
REMARK  242  A    between atoms: _614  and  _616
REMARK  243  A    between atoms: _616  and  _617
REMARK  244  A    between atoms: _616  and  _619
REMARK  245  A    between atoms: _619  and  _620
REMARK  246  A    between atoms: _620  and  _621
REMARK  247  A    between atoms: _624  and  _626
REMARK  248  A    between atoms: _626  and  _627
REMARK  249  A    between atoms: _626  and  _629
REMARK  250  A    between atoms: _629  and  _630
REMARK  251  A    between atoms: _636  and  _638
REMARK  252  A    between atoms: _638  and  _639
REMARK  253  A    between atoms: _641  and  _643
REMARK  254  A    between atoms: _643  and  _644
REMARK  255  A    between atoms: _643  and  _646
REMARK  256  A    between atoms: _646  and  _647
REMARK  257  A    between atoms: _652  and  _653
REMARK  258  A    between atoms: _655  and  _657
REMARK  259  A    between atoms: _657  and  _658
REMARK  260  A    between atoms: _657  and  _660
REMARK  261  A    between atoms: _660  and  _661
REMARK  262  A    between atoms: _666  and  _667
REMARK  263  A    between atoms: _669  and  _671
REMARK  264  A    between atoms: _671  and  _672
REMARK  265  A    between atoms: _671  and  _674
REMARK  266  A    between atoms: _674  and  _675
REMARK  267  A    between atoms: _675  and  _676
REMARK  268  A    between atoms: _676  and  _677
REMARK                            x       y       z     vdW  Elec       q    Type
REMARK                         _______ _______ _______ _____ _____    ______ ____
ROOT
ATOM      1  CA  PHE A   3      -9.411  23.071  -9.337  0.00  0.00    +0.153 C 
ENDROOT
BRANCH   1   2
ATOM      2  C   PHE A   3      -8.546  23.897  -8.406  0.00  0.00    +0.241 C 
ATOM      3  N   GLY A   4      -9.142  24.392  -7.324  0.00  0.00    -0.295 N 
ATOM      4  H   GLY A   4     -10.159  24.228  -7.185  0.00  0.00    +0.150 HD
ATOM      5  O   PHE A   3      -7.351  24.086  -8.672  0.00  0.00    -0.273 OA
BRANCH   3   6
ATOM      6  CA  GLY A   4      -8.403  25.158  -6.331  0.00  0.00    +0.176 C 
BRANCH   6   7
ATOM      7  C   GLY A   4      -7.664  24.238  -5.368  0.00  0.00    +0.243 C 
ATOM      8  O   GLY A   4      -8.091  24.071  -4.220  0.00  0.00    -0.273 OA
ATOM      9  N   TYR A   5      -6.565  23.647  -5.847  0.00  0.00    -0.298 N 
ATOM     10  H   TYR A   5      -6.262  23.877  -6.815  0.00  0.00    +0.150 HD
BRANCH   9  11
ATOM     11  CA  TYR A   5      -5.761  22.684  -5.069  0.00  0.00    +0.141 C 
BRANCH  11  12
ATOM     12  C   TYR A   5      -5.158  23.211  -3.780  0.00  0.00    +0.227 C 
ATOM     13  O   TYR A   5      -5.150  22.516  -2.760  0.00  0.00    -0.286 OA
ENDBRANCH  11  12
BRANCH  11  14
ATOM     14  CB  TYR A   5      -4.626  22.131  -5.929  0.00  0.00    +0.054 C 
BRANCH  14  15
ATOM     15  CG  TYR A   5      -5.100  21.205  -7.020  0.00  0.00    -0.020 A 
ATOM     16  CD2 TYR A   5      -5.590  19.944  -6.711  0.00  0.00    -0.001 A 
ATOM     17  CE2 TYR A   5      -6.018  19.084  -7.698  0.00  0.00    +0.036 A 
ATOM     18  CZ  TYR A   5      -5.965  19.494  -9.014  0.00  0.00    +0.134 A 
ATOM     19  CE1 TYR A   5      -5.489  20.751  -9.353  0.00  0.00    +0.036 A 
ATOM     20  CD1 TYR A   5      -5.059  21.597  -8.349  0.00  0.00    -0.001 A 
BRANCH  18  21
ATOM     21  OH  TYR A   5      -6.381  18.639  -9.988  0.00  0.00    -0.506 OA
ATOM     22  HH  TYR A   5      -5.630  18.453 -10.605  0.00  0.00    +0.292 HD
ENDBRANCH  18  21
ENDBRANCH  14  15
ENDBRANCH  11  14
ENDBRANCH   9  11
ENDBRANCH   6   7
ENDBRANCH   3   6
ENDBRANCH   1   2
BRANCH   1  24
ATOM     23  C   GLU A   2      -9.742  23.272 -11.749  0.00  0.00    +0.241 C 
ATOM     24  N   PHE A   3      -8.956  23.388 -10.690  0.00  0.00    -0.297 N 
ATOM     25  H   PHE A   3      -7.979  23.717 -10.825  0.00  0.00    +0.150 HD
ATOM     26  O   GLU A   2     -10.899  22.847 -11.692  0.00  0.00    -0.273 OA
BRANCH  23  27
ATOM     27  CA  GLU A   2      -9.110  23.671 -13.079  0.00  0.00    +0.149 C 
BRANCH  27  30
ATOM     28  C   ILE A   1      -7.471  21.878 -13.337  0.00  0.00    +0.238 C 
ATOM     29  O   ILE A   1      -6.739  22.329 -12.462  0.00  0.00    -0.274 OA
ATOM     30  N   GLU A   2      -8.605  22.465 -13.715  0.00  0.00    -0.297 N 
ATOM     31  H   GLU A   2      -9.150  22.045 -14.495  0.00  0.00    +0.150 HD
BRANCH  28  32
ATOM     32  CA  ILE A   1      -7.112  20.582 -14.061  0.00  0.00    +0.145 C 
BRANCH  32  33
ATOM     33  CB  ILE A   1      -7.613  19.354 -13.263  0.00  0.00    +0.025 C 
ATOM     34  CG2 ILE A   1      -8.997  19.590 -12.670  0.00  0.00    +0.002 C 
BRANCH  33  35
ATOM     35  CG1 ILE A   1      -7.669  18.112 -14.157  0.00  0.00    +0.002 C 
ATOM     36  CD1 ILE A   1      -6.361  17.355 -14.275  0.00  0.00    +0.000 C 
ENDBRANCH  33  35
ENDBRANCH  32  33
BRANCH  32  37
ATOM     37  N   ILE A   1      -5.675  20.494 -14.336  0.00  0.00    -0.238 NA
ATOM     38  H   ILE A   1      -5.112  19.785 -13.824  0.00  0.00    +0.142 HD
ENDBRANCH  32  37
ENDBRANCH  28  32
ENDBRANCH  27  30
BRANCH  27  39
ATOM     39  CB  GLU A   2     -10.137  24.368 -13.984  0.00  0.00    +0.041 C 
BRANCH  39  40
ATOM     40  CG  GLU A   2     -10.425  25.814 -13.601  0.00  0.00    +0.116 C 
BRANCH  40  41
ATOM     41  CD  GLU A   2     -11.403  26.515 -14.545  0.00  0.00    +0.365 C 
ATOM     42  OE2 GLU A   2     -11.707  27.707 -14.302  0.00  0.00    -0.246 OA
ATOM     43  OE1 GLU A   2     -11.874  25.888 -15.522  0.00  0.00    -0.246 OA
ENDBRANCH  40  41
ENDBRANCH  39  40
ENDBRANCH  27  39
ENDBRANCH  23  27
ENDBRANCH   1  24
BRANCH   1  44
ATOM     44  CB  PHE A   3      -9.237  21.574  -9.052  0.00  0.00    +0.055 C 
BRANCH  44  45
ATOM     45  CG  PHE A   3      -9.823  21.123  -7.738  0.00  0.00    -0.020 A 
ATOM     46  CD2 PHE A   3      -8.997  20.871  -6.642  0.00  0.00    -0.004 A 
ATOM     47  CE2 PHE A   3      -9.529  20.449  -5.420  0.00  0.00    -0.000 A 
ATOM     48  CZ  PHE A   3     -10.893  20.252  -5.298  0.00  0.00    -0.000 A 
ATOM     49  CE1 PHE A   3     -11.727  20.487  -6.384  0.00  0.00    -0.000 A 
ATOM     50  CD1 PHE A   3     -11.195  20.912  -7.602  0.00  0.00    -0.004 A 
ENDBRANCH  44  45
ENDBRANCH   1  44
TORSDOF 20
REMARK  Name = ../refined-set-2016/3zm9/3zm9_pocket.pdb
REMARK  268 active torsions:
REMARK  status: ('A' for Active; 'I' for Inactive)
REMARK    1  A    between atoms: _1  and  _3
REMARK    2  A    between atoms: _3  and  _4
REMARK    3  A    between atoms: _3  and  _6
REMARK    4  A    between atoms: _6  and  _7
REMARK    5  A    between atoms: _10  and  _12
REMARK    6  A    between atoms: _12  and  _13
REMARK    7  A    between atoms: _12  and  _15
REMARK    8  A    between atoms: _15  and  _16
REMARK    9  A    between atoms: _16  and  _17
REMARK   10  A    between atoms: _17  and  _18
REMARK   11  A    between atoms: _27  and  _29
REMARK   12  A    between atoms: _29  and  _30
REMARK   13  A    between atoms: _29  and  _32
REMARK   14  A    between atoms: _32  and  _33
REMARK   15  A    between atoms: _38  and  _40
REMARK   16  A    between atoms: _40  and  _41
REMARK   17  A    between atoms: _40  and  _43
REMARK   18  A    between atoms: _43  and  _44
REMARK   19  A    between atoms: _47  and  _49
REMARK   20  A    between atoms: _49  and  _50
REMARK   21  A    between atoms: _49  and  _52
REMARK   22  A    between atoms: _52  and  _53
REMARK   23  A    between atoms: _53  and  _54
REMARK   24  A    between atoms: _59  and  _61
REMARK   25  A    between atoms: _61  and  _62
REMARK   26  A    between atoms: _61  and  _64
REMARK   27  A    between atoms: _67  and  _69
REMARK   28  A    between atoms: _69  and  _70
REMARK   29  A    between atoms: _69  and  _72
REMARK   30  A    between atoms: _72  and  _73
REMARK   31  A    between atoms: _76  and  _78
REMARK   32  A    between atoms: _78  and  _79
REMARK   33  A    between atoms: _78  and  _81
REMARK   34  A    between atoms: _81  and  _82
REMARK   35  A    between atoms: _85  and  _87
REMARK   36  A    between atoms: _87  and  _88
REMARK   37  A    between atoms: _87  and  _90
REMARK   38  A    between atoms: _90  and  _91
REMARK   39  A    between atoms: _91  and  _92
REMARK   40  A    between atoms: _92  and  _93
REMARK   41  A    between atoms: _102  and  _104
REMARK   42  A    between atoms: _104  and  _105
REMARK   43  A    between atoms: _104  and  _107
REMARK   44  A    between atoms: _107  and  _108
REMARK   45  A    between atoms: _114  and  _116
REMARK   46  A    between atoms: _116  and  _117
REMARK   47  A    between atoms: _120  and  _121
REMARK   48  A    between atoms: _126  and  _128
REMARK   49  A    between atoms: _128  and  _129
REMARK   50  A    between atoms: _128  and  _131
REMARK   51  A    between atoms: _131  and  _132
REMARK   52  A    between atoms: _132  and  _133
REMARK   53  A    between atoms: _133  and  _134
REMARK   54  A    between atoms: _134  and  _135
REMARK   55  A    between atoms: _139  and  _141
REMARK   56  A    between atoms: _141  and  _142
REMARK   57  A    between atoms: _141  and  _144
REMARK   58  A    between atoms: _144  and  _145
REMARK   59  A    between atoms: _145  and  _146
REMARK   60  A    between atoms: _146  and  _147
REMARK   61  A    between atoms: _156  and  _158
REMARK   62  A    between atoms: _158  and  _159
REMARK   63  A    between atoms: _158  and  _161
REMARK   64  A    between atoms: _161  and  _162
REMARK   65  A    between atoms: _165  and  _167
REMARK   66  A    between atoms: _167  and  _168
REMARK   67  A    between atoms: _167  and  _170
REMARK   68  A    between atoms: _170  and  _171
REMARK   69  A    between atoms: _171  and  _172
REMARK   70  A    between atoms: _175  and  _177
REMARK   71  A    between atoms: _177  and  _178
REMARK   72  A    between atoms: _177  and  _180
REMARK   73  A    between atoms: _180  and  _181
REMARK   74  A    between atoms: _181  and  _182
REMARK   75  A    between atoms: _187  and  _189
REMARK   76  A    between atoms: _189  and  _190
REMARK   77  A    between atoms: _189  and  _192
REMARK   78  A    between atoms: _192  and  _193
REMARK   79  A    between atoms: _199  and  _201
REMARK   80  A    between atoms: _201  and  _202
REMARK   81  A    between atoms: _201  and  _204
REMARK   82  A    between atoms: _204  and  _205
REMARK   83  A    between atoms: _209  and  _210
REMARK   84  A    between atoms: _215  and  _217
REMARK   85  A    between atoms: _217  and  _218
REMARK   86  A    between atoms: _217  and  _220
REMARK   87  A    between atoms: _220  and  _221
REMARK   88  A    between atoms: _223  and  _225
REMARK   89  A    between atoms: _225  and  _226
REMARK   90  A    between atoms: _225  and  _228
REMARK   91  A    between atoms: _228  and  _229
REMARK   92  A    between atoms: _229  and  _230
REMARK   93  A    between atoms: _230  and  _231
REMARK   94  A    between atoms: _240  and  _242
REMARK   95  A    between atoms: _242  and  _243
REMARK   96  A    between atoms: _242  and  _245
REMARK   97  A    between atoms: _245  and  _246
REMARK   98  A    between atoms: _246  and  _247
REMARK   99  A    between atoms: _247  and  _248
REMARK  100  A    between atoms: _257  and  _259
REMARK  101  A    between atoms: _259  and  _260
REMARK  102  A    between atoms: _259  and  _262
REMARK  103  A    between atoms: _262  and  _263
REMARK  104  A    between atoms: _266  and  _268
REMARK  105  A    between atoms: _268  and  _269
REMARK  106  A    between atoms: _268  and  _271
REMARK  107  A    between atoms: _271  and  _272
REMARK  108  A    between atoms: _277  and  _278
REMARK  109  A    between atoms: _280  and  _282
REMARK  110  A    between atoms: _282  and  _283
REMARK  111  A    between atoms: _282  and  _285
REMARK  112  A    between atoms: _285  and  _286
REMARK  113  A    between atoms: _291  and  _293
REMARK  114  A    between atoms: _293  and  _294
REMARK  115  A    between atoms: _293  and  _296
REMARK  116  A    between atoms: _296  and  _297
REMARK  117  A    between atoms: _300  and  _302
REMARK  118  A    between atoms: _302  and  _303
REMARK  119  A    between atoms: _302  and  _305
REMARK  120  A    between atoms: _307  and  _309
REMARK  121  A    between atoms: _309  and  _310
REMARK  122  A    between atoms: _309  and  _312
REMARK  123  A    between atoms: _312  and  _313
REMARK  124  A    between atoms: _313  and  _314
REMARK  125  A    between atoms: _319  and  _321
REMARK  126  A    between atoms: _321  and  _322
REMARK  127  A    between atoms: _321  and  _324
REMARK  128  A    between atoms: _324  and  _325
REMARK  129  A    between atoms: _325  and  _326
REMARK  130  A    between atoms: _329  and  _331
REMARK  131  A    between atoms: _331  and  _332
REMARK  132  A    between atoms: _334  and  _336
REMARK  133  A    between atoms: _336  and  _337
REMARK  134  A    between atoms: _336  and  _339
REMARK  135  A    between atoms: _339  and  _340
REMARK  136  A    between atoms: _345  and  _347
REMARK  137  A    between atoms: _347  and  _348
REMARK  138  A    between atoms: _347  and  _350
REMARK  139  A    between atoms: _350  and  _351
REMARK  140  A    between atoms: _354  and  _356
REMARK  141  A    between atoms: _356  and  _357
REMARK  142  A    between atoms: _356  and  _359
REMARK  143  A    between atoms: _359  and  _360
REMARK  144  A    between atoms: _363  and  _365
REMARK  145  A    between atoms: _365  and  _366
REMARK  146  A    between atoms: _365  and  _368
REMARK  147  A    between atoms: _368  and  _369
REMARK  148  A    between atoms: _369  and  _370
REMARK  149  A    between atoms: _372  and  _374
REMARK  150  A    between atoms: _374  and  _375
REMARK  151  A    between atoms: _374  and  _377
REMARK  152  A    between atoms: _377  and  _378
REMARK  153  A    between atoms: _381  and  _383
REMARK  154  A    between atoms: _383  and  _384
REMARK  155  A    between atoms: _383  and  _386
REMARK  156  A    between atoms: _386  and  _387
REMARK  157  A    between atoms: _390  and  _392
REMARK  158  A    between atoms: _392  and  _393
REMARK  159  A    between atoms: _392  and  _395
REMARK  160  A    between atoms: _395  and  _396
REMARK  161  A    between atoms: _396  and  _397
REMARK  162  A    between atoms: _400  and  _402
REMARK  163  A    between atoms: _402  and  _403
REMARK  164  A    between atoms: _402  and  _405
REMARK  165  A    between atoms: _405  and  _406
REMARK  166  A    between atoms: _411  and  _412
REMARK  167  A    between atoms: _414  and  _416
REMARK  168  A    between atoms: _416  and  _417
REMARK  169  A    between atoms: _416  and  _419
REMARK  170  A    between atoms: _419  and  _420
REMARK  171  A    between atoms: _426  and  _428
REMARK  172  A    between atoms: _428  and  _429
REMARK  173  A    between atoms: _428  and  _431
REMARK  174  A    between atoms: _431  and  _432
REMARK  175  A    between atoms: _437  and  _439
REMARK  176  A    between atoms: _439  and  _440
REMARK  177  A    between atoms: _439  and  _442
REMARK  178  A    between atoms: _442  and  _443
REMARK  179  A    between atoms: _443  and  _444
REMARK  180  A    between atoms: _447  and  _449
REMARK  181  A    between atoms: _449  and  _450
REMARK  182  A    between atoms: _449  and  _452
REMARK  183  A    between atoms: _452  and  _453
REMARK  184  A    between atoms: _458  and  _459
REMARK  185  A    between atoms: _461  and  _463
REMARK  186  A    between atoms: _463  and  _464
REMARK  187  A    between atoms: _463  and  _466
REMARK  188  A    between atoms: _466  and  _467
REMARK  189  A    between atoms: _470  and  _472
REMARK  190  A    between atoms: _472  and  _473
REMARK  191  A    between atoms: _472  and  _475
REMARK  192  A    between atoms: _475  and  _476
REMARK  193  A    between atoms: _481  and  _482
REMARK  194  A    between atoms: _484  and  _486
REMARK  195  A    between atoms: _486  and  _487
REMARK  196  A    between atoms: _486  and  _489
REMARK  197  A    between atoms: _489  and  _490
REMARK  198  A    between atoms: _493  and  _494
REMARK  199  A    between atoms: _499  and  _501
REMARK  200  A    between atoms: _501  and  _502
REMARK  201  A    between atoms: _501  and  _504
REMARK  202  A    between atoms: _504  and  _505
REMARK  203  A    between atoms: _511  and  _513
REMARK  204  A    between atoms: _513  and  _514
REMARK  205  A    between atoms: _513  and  _516
REMARK  206  A    between atoms: _516  and  _517
REMARK  207  A    between atoms: _523  and  _525
REMARK  208  A    between atoms: _525  and  _526
REMARK  209  A    between atoms: _525  and  _528
REMARK  210  A    between atoms: _528  and  _529
REMARK  211  A    between atoms: _531  and  _533
REMARK  212  A    between atoms: _533  and  _534
REMARK  213  A    between atoms: _533  and  _536
REMARK  214  A    between atoms: _536  and  _537
REMARK  215  A    between atoms: _540  and  _542
REMARK  216  A    between atoms: _542  and  _543
REMARK  217  A    between atoms: _542  and  _545
REMARK  218  A    between atoms: _545  and  _546
REMARK  219  A    between atoms: _556  and  _558
REMARK  220  A    between atoms: _558  and  _559
REMARK  221  A    between atoms: _561  and  _563
REMARK  222  A    between atoms: _563  and  _564
REMARK  223  A    between atoms: _563  and  _566
REMARK  224  A    between atoms: _566  and  _567
REMARK  225  A    between atoms: _577  and  _579
REMARK  226  A    between atoms: _579  and  _580
REMARK  227  A    between atoms: _579  and  _582
REMARK  228  A    between atoms: _582  and  _583
REMARK  229  A    between atoms: _585  and  _587
REMARK  230  A    between atoms: _587  and  _588
REMARK  231  A    between atoms: _587  and  _590
REMARK  232  A    between atoms: _590  and  _591
REMARK  233  A    between atoms: _591  and  _592
REMARK  234  A    between atoms: _597  and  _599
REMARK  235  A    between atoms: _599  and  _600
REMARK  236  A    between atoms: _599  and  _602
REMARK  237  A    between atoms: _602  and  _603
REMARK  238  A    between atoms: _605  and  _607
REMARK  239  A    between atoms: _607  and  _608
REMARK  240  A    between atoms: _607  and  _610
REMARK  241  A    between atoms: _610  and  _611
REMARK  242  A    between atoms: _614  and  _616
REMARK  243  A    between atoms: _616  and  _617
REMARK  244  A    between atoms: _616  and  _619
REMARK  245  A    between atoms: _619  and  _620
REMARK  246  A    between atoms: _620  and  _621
REMARK  247  A    between atoms: _624  and  _626
REMARK  248  A    between atoms: _626  and  _627
REMARK  249  A    between atoms: _626  and  _629
REMARK  250  A    between atoms: _629  and  _630
REMARK  251  A    between atoms: _636  and  _638
REMARK  252  A    between atoms: _638  and  _639
REMARK  253  A    between atoms: _641  and  _643
REMARK  254  A    between atoms: _643  and  _644
REMARK  255  A    between atoms: _643  and  _646
REMARK  256  A    between atoms: _646  and  _647
REMARK  257  A    between atoms: _652  and  _653
REMARK  258  A    between atoms: _655  and  _657
REMARK  259  A    between atoms: _657  and  _658
REMARK  260  A    between atoms: _657  and  _660
REMARK  261  A    between atoms: _660  and  _661
REMARK  262  A    between atoms: _666  and  _667
REMARK  263  A    between atoms: _669  and  _671
REMARK  264  A    between atoms: _671  and  _672
REMARK  265  A    between atoms: _671  and  _674
REMARK  266  A    between atoms: _674  and  _675
REMARK  267  A    between atoms: _675  and  _676
REMARK  268  A    between atoms: _676  and  _677
REMARK                            x       y       z     vdW  Elec       q    Type
REMARK                         _______ _______ _______ _____ _____    ______ ____
ROOT
ATOM      1  CG  TYR A   1      -9.103  19.996  -1.711  0.00  0.00    -0.020 A 
ATOM      2  CD2 TYR A   1     -10.415  19.813  -1.262  0.00  0.00    -0.001 A 
ATOM      3  CE2 TYR A   1     -10.884  18.550  -0.907  0.00  0.00    +0.036 A 
ATOM      4  CZ  TYR A   1     -10.040  17.457  -1.000  0.00  0.00    +0.134 A 
ATOM      5  CE1 TYR A   1      -8.746  17.605  -1.440  0.00  0.00    +0.036 A 
ATOM      6  CD1 TYR A   1      -8.280  18.878  -1.787  0.00  0.00    -0.001 A 
ENDROOT
BRANCH   4   7
ATOM      7  OH  TYR A   1     -10.501  16.208  -0.665  0.00  0.00    -0.506 OA
ATOM      8  HH  TYR A   1     -11.444  16.274  -0.370  0.00  0.00    +0.292 HD
ENDBRANCH   4   7
BRANCH   1   9
ATOM      9  CB  TYR A   1      -8.591  21.374  -2.101  0.00  0.00    +0.051 C 
BRANCH   9  10
ATOM     10  CA  TYR A   1      -8.385  22.331  -0.929  0.00  0.00    +0.137 C 
BRANCH  10  11
ATOM     11  N   TYR A   1      -7.963  23.655  -1.389  0.00  0.00    -0.239 NA
ATOM     12  H   TYR A   1      -7.683  23.788  -2.382  0.00  0.00    +0.142 HD
ENDBRANCH  10  11
BRANCH  10  13
ATOM     13  C   TYR A   1      -7.425  21.752   0.109  0.00  0.00    +0.224 C 
ATOM     14  O   TYR A   1      -7.866  21.187   1.110  0.00  0.00    -0.287 OA
ENDBRANCH  10  13
ENDBRANCH   9  10
ENDBRANCH   1   9
TORSDOF 5
REMARK  Name = ../refined-set-2016/3zm9/3zm9_pocket.pdb
REMARK  268 active torsions:
REMARK  status: ('A' for Active; 'I' for Inactive)
REMARK    1  A    between atoms: _1  and  _3
REMARK    2  A    between atoms: _3  and  _4
REMARK    3  A    between atoms: _3  and  _6
REMARK    4  A    between atoms: _6  and  _7
REMARK    5  A    between atoms: _10  and  _12
REMARK    6  A    between atoms: _12  and  _13
REMARK    7  A    between atoms: _12  and  _15
REMARK    8  A    between atoms: _15  and  _16
REMARK    9  A    between atoms: _16  and  _17
REMARK   10  A    between atoms: _17  and  _18
REMARK   11  A    between atoms: _27  and  _29
REMARK   12  A    between atoms: _29  and  _30
REMARK   13  A    between atoms: _29  and  _32
REMARK   14  A    between atoms: _32  and  _33
REMARK   15  A    between atoms: _38  and  _40
REMARK   16  A    between atoms: _40  and  _41
REMARK   17  A    between atoms: _40  and  _43
REMARK   18  A    between atoms: _43  and  _44
REMARK   19  A    between atoms: _47  and  _49
REMARK   20  A    between atoms: _49  and  _50
REMARK   21  A    between atoms: _49  and  _52
REMARK   22  A    between atoms: _52  and  _53
REMARK   23  A    between atoms: _53  and  _54
REMARK   24  A    between atoms: _59  and  _61
REMARK   25  A    between atoms: _61  and  _62
REMARK   26  A    between atoms: _61  and  _64
REMARK   27  A    between atoms: _67  and  _69
REMARK   28  A    between atoms: _69  and  _70
REMARK   29  A    between atoms: _69  and  _72
REMARK   30  A    between atoms: _72  and  _73
REMARK   31  A    between atoms: _76  and  _78
REMARK   32  A    between atoms: _78  and  _79
REMARK   33  A    between atoms: _78  and  _81
REMARK   34  A    between atoms: _81  and  _82
REMARK   35  A    between atoms: _85  and  _87
REMARK   36  A    between atoms: _87  and  _88
REMARK   37  A    between atoms: _87  and  _90
REMARK   38  A    between atoms: _90  and  _91
REMARK   39  A    between atoms: _91  and  _92
REMARK   40  A    between atoms: _92  and  _93
REMARK   41  A    between atoms: _102  and  _104
REMARK   42  A    between atoms: _104  and  _105
REMARK   43  A    between atoms: _104  and  _107
REMARK   44  A    between atoms: _107  and  _108
REMARK   45  A    between atoms: _114  and  _116
REMARK   46  A    between atoms: _116  and  _117
REMARK   47  A    between atoms: _120  and  _121
REMARK   48  A    between atoms: _126  and  _128
REMARK   49  A    between atoms: _128  and  _129
REMARK   50  A    between atoms: _128  and  _131
REMARK   51  A    between atoms: _131  and  _132
REMARK   52  A    between atoms: _132  and  _133
REMARK   53  A    between atoms: _133  and  _134
REMARK   54  A    between atoms: _134  and  _135
REMARK   55  A    between atoms: _139  and  _141
REMARK   56  A    between atoms: _141  and  _142
REMARK   57  A    between atoms: _141  and  _144
REMARK   58  A    between atoms: _144  and  _145
REMARK   59  A    between atoms: _145  and  _146
REMARK   60  A    between atoms: _146  and  _147
REMARK   61  A    between atoms: _156  and  _158
REMARK   62  A    between atoms: _158  and  _159
REMARK   63  A    between atoms: _158  and  _161
REMARK   64  A    between atoms: _161  and  _162
REMARK   65  A    between atoms: _165  and  _167
REMARK   66  A    between atoms: _167  and  _168
REMARK   67  A    between atoms: _167  and  _170
REMARK   68  A    between atoms: _170  and  _171
REMARK   69  A    between atoms: _171  and  _172
REMARK   70  A    between atoms: _175  and  _177
REMARK   71  A    between atoms: _177  and  _178
REMARK   72  A    between atoms: _177  and  _180
REMARK   73  A    between atoms: _180  and  _181
REMARK   74  A    between atoms: _181  and  _182
REMARK   75  A    between atoms: _187  and  _189
REMARK   76  A    between atoms: _189  and  _190
REMARK   77  A    between atoms: _189  and  _192
REMARK   78  A    between atoms: _192  and  _193
REMARK   79  A    between atoms: _199  and  _201
REMARK   80  A    between atoms: _201  and  _202
REMARK   81  A    between atoms: _201  and  _204
REMARK   82  A    between atoms: _204  and  _205
REMARK   83  A    between atoms: _209  and  _210
REMARK   84  A    between atoms: _215  and  _217
REMARK   85  A    between atoms: _217  and  _218
REMARK   86  A    between atoms: _217  and  _220
REMARK   87  A    between atoms: _220  and  _221
REMARK   88  A    between atoms: _223  and  _225
REMARK   89  A    between atoms: _225  and  _226
REMARK   90  A    between atoms: _225  and  _228
REMARK   91  A    between atoms: _228  and  _229
REMARK   92  A    between atoms: _229  and  _230
REMARK   93  A    between atoms: _230  and  _231
REMARK   94  A    between atoms: _240  and  _242
REMARK   95  A    between atoms: _242  and  _243
REMARK   96  A    between atoms: _242  and  _245
REMARK   97  A    between atoms: _245  and  _246
REMARK   98  A    between atoms: _246  and  _247
REMARK   99  A    between atoms: _247  and  _248
REMARK  100  A    between atoms: _257  and  _259
REMARK  101  A    between atoms: _259  and  _260
REMARK  102  A    between atoms: _259  and  _262
REMARK  103  A    between atoms: _262  and  _263
REMARK  104  A    between atoms: _266  and  _268
REMARK  105  A    between atoms: _268  and  _269
REMARK  106  A    between atoms: _268  and  _271
REMARK  107  A    between atoms: _271  and  _272
REMARK  108  A    between atoms: _277  and  _278
REMARK  109  A    between atoms: _280  and  _282
REMARK  110  A    between atoms: _282  and  _283
REMARK  111  A    between atoms: _282  and  _285
REMARK  112  A    between atoms: _285  and  _286
REMARK  113  A    between atoms: _291  and  _293
REMARK  114  A    between atoms: _293  and  _294
REMARK  115  A    between atoms: _293  and  _296
REMARK  116  A    between atoms: _296  and  _297
REMARK  117  A    between atoms: _300  and  _302
REMARK  118  A    between atoms: _302  and  _303
REMARK  119  A    between atoms: _302  and  _305
REMARK  120  A    between atoms: _307  and  _309
REMARK  121  A    between atoms: _309  and  _310
REMARK  122  A    between atoms: _309  and  _312
REMARK  123  A    between atoms: _312  and  _313
REMARK  124  A    between atoms: _313  and  _314
REMARK  125  A    between atoms: _319  and  _321
REMARK  126  A    between atoms: _321  and  _322
REMARK  127  A    between atoms: _321  and  _324
REMARK  128  A    between atoms: _324  and  _325
REMARK  129  A    between atoms: _325  and  _326
REMARK  130  A    between atoms: _329  and  _331
REMARK  131  A    between atoms: _331  and  _332
REMARK  132  A    between atoms: _334  and  _336
REMARK  133  A    between atoms: _336  and  _337
REMARK  134  A    between atoms: _336  and  _339
REMARK  135  A    between atoms: _339  and  _340
REMARK  136  A    between atoms: _345  and  _347
REMARK  137  A    between atoms: _347  and  _348
REMARK  138  A    between atoms: _347  and  _350
REMARK  139  A    between atoms: _350  and  _351
REMARK  140  A    between atoms: _354  and  _356
REMARK  141  A    between atoms: _356  and  _357
REMARK  142  A    between atoms: _356  and  _359
REMARK  143  A    between atoms: _359  and  _360
REMARK  144  A    between atoms: _363  and  _365
REMARK  145  A    between atoms: _365  and  _366
REMARK  146  A    between atoms: _365  and  _368
REMARK  147  A    between atoms: _368  and  _369
REMARK  148  A    between atoms: _369  and  _370
REMARK  149  A    between atoms: _372  and  _374
REMARK  150  A    between atoms: _374  and  _375
REMARK  151  A    between atoms: _374  and  _377
REMARK  152  A    between atoms: _377  and  _378
REMARK  153  A    between atoms: _381  and  _383
REMARK  154  A    between atoms: _383  and  _384
REMARK  155  A    between atoms: _383  and  _386
REMARK  156  A    between atoms: _386  and  _387
REMARK  157  A    between atoms: _390  and  _392
REMARK  158  A    between atoms: _392  and  _393
REMARK  159  A    between atoms: _392  and  _395
REMARK  160  A    between atoms: _395  and  _396
REMARK  161  A    between atoms: _396  and  _397
REMARK  162  A    between atoms: _400  and  _402
REMARK  163  A    between atoms: _402  and  _403
REMARK  164  A    between atoms: _402  and  _405
REMARK  165  A    between atoms: _405  and  _406
REMARK  166  A    between atoms: _411  and  _412
REMARK  167  A    between atoms: _414  and  _416
REMARK  168  A    between atoms: _416  and  _417
REMARK  169  A    between atoms: _416  and  _419
REMARK  170  A    between atoms: _419  and  _420
REMARK  171  A    between atoms: _426  and  _428
REMARK  172  A    between atoms: _428  and  _429
REMARK  173  A    between atoms: _428  and  _431
REMARK  174  A    between atoms: _431  and  _432
REMARK  175  A    between atoms: _437  and  _439
REMARK  176  A    between atoms: _439  and  _440
REMARK  177  A    between atoms: _439  and  _442
REMARK  178  A    between atoms: _442  and  _443
REMARK  179  A    between atoms: _443  and  _444
REMARK  180  A    between atoms: _447  and  _449
REMARK  181  A    between atoms: _449  and  _450
REMARK  182  A    between atoms: _449  and  _452
REMARK  183  A    between atoms: _452  and  _453
REMARK  184  A    between atoms: _458  and  _459
REMARK  185  A    between atoms: _461  and  _463
REMARK  186  A    between atoms: _463  and  _464
REMARK  187  A    between atoms: _463  and  _466
REMARK  188  A    between atoms: _466  and  _467
REMARK  189  A    between atoms: _470  and  _472
REMARK  190  A    between atoms: _472  and  _473
REMARK  191  A    between atoms: _472  and  _475
REMARK  192  A    between atoms: _475  and  _476
REMARK  193  A    between atoms: _481  and  _482
REMARK  194  A    between atoms: _484  and  _486
REMARK  195  A    between atoms: _486  and  _487
REMARK  196  A    between atoms: _486  and  _489
REMARK  197  A    between atoms: _489  and  _490
REMARK  198  A    between atoms: _493  and  _494
REMARK  199  A    between atoms: _499  and  _501
REMARK  200  A    between atoms: _501  and  _502
REMARK  201  A    between atoms: _501  and  _504
REMARK  202  A    between atoms: _504  and  _505
REMARK  203  A    between atoms: _511  and  _513
REMARK  204  A    between atoms: _513  and  _514
REMARK  205  A    between atoms: _513  and  _516
REMARK  206  A    between atoms: _516  and  _517
REMARK  207  A    between atoms: _523  and  _525
REMARK  208  A    between atoms: _525  and  _526
REMARK  209  A    between atoms: _525  and  _528
REMARK  210  A    between atoms: _528  and  _529
REMARK  211  A    between atoms: _531  and  _533
REMARK  212  A    between atoms: _533  and  _534
REMARK  213  A    between atoms: _533  and  _536
REMARK  214  A    between atoms: _536  and  _537
REMARK  215  A    between atoms: _540  and  _542
REMARK  216  A    between atoms: _542  and  _543
REMARK  217  A    between atoms: _542  and  _545
REMARK  218  A    between atoms: _545  and  _546
REMARK  219  A    between atoms: _556  and  _558
REMARK  220  A    between atoms: _558  and  _559
REMARK  221  A    between atoms: _561  and  _563
REMARK  222  A    between atoms: _563  and  _564
REMARK  223  A    between atoms: _563  and  _566
REMARK  224  A    between atoms: _566  and  _567
REMARK  225  A    between atoms: _577  and  _579
REMARK  226  A    between atoms: _579  and  _580
REMARK  227  A    between atoms: _579  and  _582
REMARK  228  A    between atoms: _582  and  _583
REMARK  229  A    between atoms: _585  and  _587
REMARK  230  A    between atoms: _587  and  _588
REMARK  231  A    between atoms: _587  and  _590
REMARK  232  A    between atoms: _590  and  _591
REMARK  233  A    between atoms: _591  and  _592
REMARK  234  A    between atoms: _597  and  _599
REMARK  235  A    between atoms: _599  and  _600
REMARK  236  A    between atoms: _599  and  _602
REMARK  237  A    between atoms: _602  and  _603
REMARK  238  A    between atoms: _605  and  _607
REMARK  239  A    between atoms: _607  and  _608
REMARK  240  A    between atoms: _607  and  _610
REMARK  241  A    between atoms: _610  and  _611
REMARK  242  A    between atoms: _614  and  _616
REMARK  243  A    between atoms: _616  and  _617
REMARK  244  A    between atoms: _616  and  _619
REMARK  245  A    between atoms: _619  and  _620
REMARK  246  A    between atoms: _620  and  _621
REMARK  247  A    between atoms: _624  and  _626
REMARK  248  A    between atoms: _626  and  _627
REMARK  249  A    between atoms: _626  and  _629
REMARK  250  A    between atoms: _629  and  _630
REMARK  251  A    between atoms: _636  and  _638
REMARK  252  A    between atoms: _638  and  _639
REMARK  253  A    between atoms: _641  and  _643
REMARK  254  A    between atoms: _643  and  _644
REMARK  255  A    between atoms: _643  and  _646
REMARK  256  A    between atoms: _646  and  _647
REMARK  257  A    between atoms: _652  and  _653
REMARK  258  A    between atoms: _655  and  _657
REMARK  259  A    between atoms: _657  and  _658
REMARK  260  A    between atoms: _657  and  _660
REMARK  261  A    between atoms: _660  and  _661
REMARK  262  A    between atoms: _666  and  _667
REMARK  263  A    between atoms: _669  and  _671
REMARK  264  A    between atoms: _671  and  _672
REMARK  265  A    between atoms: _671  and  _674
REMARK  266  A    between atoms: _674  and  _675
REMARK  267  A    between atoms: _675  and  _676
REMARK  268  A    between atoms: _676  and  _677
REMARK                            x       y       z     vdW  Elec       q    Type
REMARK                         _______ _______ _______ _____ _____    ______ ____
ROOT
ATOM      1  NE  ARG A   1      -9.536  16.355   3.409  0.00  0.00    -0.265 N 
ATOM      2  HE  ARG A   1      -9.382  16.491   4.429  0.00  0.00    +0.259 HD
ATOM      3  CZ  ARG A   1      -9.806  15.117   2.987  0.00  0.00    +0.342 C 
ATOM      4  NH2 ARG A   1      -9.898  14.129   3.878  0.00  0.00    -0.292 N 
ATOM      5 HH21 ARG A   1      -9.760  14.327   4.890  0.00  0.00    +0.255 HD
ATOM      6 HH22 ARG A   1     -10.108  13.161   3.561  0.00  0.00    +0.255 HD
ATOM      7  NH1 ARG A   1      -9.995  14.851   1.689  0.00  0.00    -0.292 N 
ATOM      8 HH11 ARG A   1     -10.204  13.880   1.382  0.00  0.00    +0.255 HD
ATOM      9 HH12 ARG A   1      -9.933  15.616   0.987  0.00  0.00    +0.255 HD
ENDROOT
BRANCH   1  10
ATOM     10  CD  ARG A   1      -9.439  17.539   2.547  0.00  0.00    +0.174 C 
BRANCH  10  11
ATOM     11  CG  ARG A   1      -8.007  17.995   2.292  0.00  0.00    +0.045 C 
BRANCH  11  12
ATOM     12  CB  ARG A   1      -7.244  18.355   3.570  0.00  0.00    +0.029 C 
BRANCH  12  13
ATOM     13  CA  ARG A   1      -7.981  19.292   4.548  0.00  0.00    +0.133 C 
BRANCH  13  14
ATOM     14  N   ARG A   1      -8.330  20.585   3.945  0.00  0.00    -0.239 NA
ATOM     15  H   ARG A   1      -7.997  20.813   2.987  0.00  0.00    +0.142 HD
ENDBRANCH  13  14
BRANCH  13  16
ATOM     16  C   ARG A   1      -7.160  19.460   5.825  0.00  0.00    +0.224 C 
ATOM     17  O   ARG A   1      -7.446  18.802   6.828  0.00  0.00    -0.287 OA
ENDBRANCH  13  16
ENDBRANCH  12  13
ENDBRANCH  11  12
ENDBRANCH  10  11
ENDBRANCH   1  10
TORSDOF 6
REMARK  Name = ../refined-set-2016/3zm9/3zm9_pocket.pdb
REMARK  268 active torsions:
REMARK  status: ('A' for Active; 'I' for Inactive)
REMARK    1  A    between atoms: _1  and  _3
REMARK    2  A    between atoms: _3  and  _4
REMARK    3  A    between atoms: _3  and  _6
REMARK    4  A    between atoms: _6  and  _7
REMARK    5  A    between atoms: _10  and  _12
REMARK    6  A    between atoms: _12  and  _13
REMARK    7  A    between atoms: _12  and  _15
REMARK    8  A    between atoms: _15  and  _16
REMARK    9  A    between atoms: _16  and  _17
REMARK   10  A    between atoms: _17  and  _18
REMARK   11  A    between atoms: _27  and  _29
REMARK   12  A    between atoms: _29  and  _30
REMARK   13  A    between atoms: _29  and  _32
REMARK   14  A    between atoms: _32  and  _33
REMARK   15  A    between atoms: _38  and  _40
REMARK   16  A    between atoms: _40  and  _41
REMARK   17  A    between atoms: _40  and  _43
REMARK   18  A    between atoms: _43  and  _44
REMARK   19  A    between atoms: _47  and  _49
REMARK   20  A    between atoms: _49  and  _50
REMARK   21  A    between atoms: _49  and  _52
REMARK   22  A    between atoms: _52  and  _53
REMARK   23  A    between atoms: _53  and  _54
REMARK   24  A    between atoms: _59  and  _61
REMARK   25  A    between atoms: _61  and  _62
REMARK   26  A    between atoms: _61  and  _64
REMARK   27  A    between atoms: _67  and  _69
REMARK   28  A    between atoms: _69  and  _70
REMARK   29  A    between atoms: _69  and  _72
REMARK   30  A    between atoms: _72  and  _73
REMARK   31  A    between atoms: _76  and  _78
REMARK   32  A    between atoms: _78  and  _79
REMARK   33  A    between atoms: _78  and  _81
REMARK   34  A    between atoms: _81  and  _82
REMARK   35  A    between atoms: _85  and  _87
REMARK   36  A    between atoms: _87  and  _88
REMARK   37  A    between atoms: _87  and  _90
REMARK   38  A    between atoms: _90  and  _91
REMARK   39  A    between atoms: _91  and  _92
REMARK   40  A    between atoms: _92  and  _93
REMARK   41  A    between atoms: _102  and  _104
REMARK   42  A    between atoms: _104  and  _105
REMARK   43  A    between atoms: _104  and  _107
REMARK   44  A    between atoms: _107  and  _108
REMARK   45  A    between atoms: _114  and  _116
REMARK   46  A    between atoms: _116  and  _117
REMARK   47  A    between atoms: _120  and  _121
REMARK   48  A    between atoms: _126  and  _128
REMARK   49  A    between atoms: _128  and  _129
REMARK   50  A    between atoms: _128  and  _131
REMARK   51  A    between atoms: _131  and  _132
REMARK   52  A    between atoms: _132  and  _133
REMARK   53  A    between atoms: _133  and  _134
REMARK   54  A    between atoms: _134  and  _135
REMARK   55  A    between atoms: _139  and  _141
REMARK   56  A    between atoms: _141  and  _142
REMARK   57  A    between atoms: _141  and  _144
REMARK   58  A    between atoms: _144  and  _145
REMARK   59  A    between atoms: _145  and  _146
REMARK   60  A    between atoms: _146  and  _147
REMARK   61  A    between atoms: _156  and  _158
REMARK   62  A    between atoms: _158  and  _159
REMARK   63  A    between atoms: _158  and  _161
REMARK   64  A    between atoms: _161  and  _162
REMARK   65  A    between atoms: _165  and  _167
REMARK   66  A    between atoms: _167  and  _168
REMARK   67  A    between atoms: _167  and  _170
REMARK   68  A    between atoms: _170  and  _171
REMARK   69  A    between atoms: _171  and  _172
REMARK   70  A    between atoms: _175  and  _177
REMARK   71  A    between atoms: _177  and  _178
REMARK   72  A    between atoms: _177  and  _180
REMARK   73  A    between atoms: _180  and  _181
REMARK   74  A    between atoms: _181  and  _182
REMARK   75  A    between atoms: _187  and  _189
REMARK   76  A    between atoms: _189  and  _190
REMARK   77  A    between atoms: _189  and  _192
REMARK   78  A    between atoms: _192  and  _193
REMARK   79  A    between atoms: _199  and  _201
REMARK   80  A    between atoms: _201  and  _202
REMARK   81  A    between atoms: _201  and  _204
REMARK   82  A    between atoms: _204  and  _205
REMARK   83  A    between atoms: _209  and  _210
REMARK   84  A    between atoms: _215  and  _217
REMARK   85  A    between atoms: _217  and  _218
REMARK   86  A    between atoms: _217  and  _220
REMARK   87  A    between atoms: _220  and  _221
REMARK   88  A    between atoms: _223  and  _225
REMARK   89  A    between atoms: _225  and  _226
REMARK   90  A    between atoms: _225  and  _228
REMARK   91  A    between atoms: _228  and  _229
REMARK   92  A    between atoms: _229  and  _230
REMARK   93  A    between atoms: _230  and  _231
REMARK   94  A    between atoms: _240  and  _242
REMARK   95  A    between atoms: _242  and  _243
REMARK   96  A    between atoms: _242  and  _245
REMARK   97  A    between atoms: _245  and  _246
REMARK   98  A    between atoms: _246  and  _247
REMARK   99  A    between atoms: _247  and  _248
REMARK  100  A    between atoms: _257  and  _259
REMARK  101  A    between atoms: _259  and  _260
REMARK  102  A    between atoms: _259  and  _262
REMARK  103  A    between atoms: _262  and  _263
REMARK  104  A    between atoms: _266  and  _268
REMARK  105  A    between atoms: _268  and  _269
REMARK  106  A    between atoms: _268  and  _271
REMARK  107  A    between atoms: _271  and  _272
REMARK  108  A    between atoms: _277  and  _278
REMARK  109  A    between atoms: _280  and  _282
REMARK  110  A    between atoms: _282  and  _283
REMARK  111  A    between atoms: _282  and  _285
REMARK  112  A    between atoms: _285  and  _286
REMARK  113  A    between atoms: _291  and  _293
REMARK  114  A    between atoms: _293  and  _294
REMARK  115  A    between atoms: _293  and  _296
REMARK  116  A    between atoms: _296  and  _297
REMARK  117  A    between atoms: _300  and  _302
REMARK  118  A    between atoms: _302  and  _303
REMARK  119  A    between atoms: _302  and  _305
REMARK  120  A    between atoms: _307  and  _309
REMARK  121  A    between atoms: _309  and  _310
REMARK  122  A    between atoms: _309  and  _312
REMARK  123  A    between atoms: _312  and  _313
REMARK  124  A    between atoms: _313  and  _314
REMARK  125  A    between atoms: _319  and  _321
REMARK  126  A    between atoms: _321  and  _322
REMARK  127  A    between atoms: _321  and  _324
REMARK  128  A    between atoms: _324  and  _325
REMARK  129  A    between atoms: _325  and  _326
REMARK  130  A    between atoms: _329  and  _331
REMARK  131  A    between atoms: _331  and  _332
REMARK  132  A    between atoms: _334  and  _336
REMARK  133  A    between atoms: _336  and  _337
REMARK  134  A    between atoms: _336  and  _339
REMARK  135  A    between atoms: _339  and  _340
REMARK  136  A    between atoms: _345  and  _347
REMARK  137  A    between atoms: _347  and  _348
REMARK  138  A    between atoms: _347  and  _350
REMARK  139  A    between atoms: _350  and  _351
REMARK  140  A    between atoms: _354  and  _356
REMARK  141  A    between atoms: _356  and  _357
REMARK  142  A    between atoms: _356  and  _359
REMARK  143  A    between atoms: _359  and  _360
REMARK  144  A    between atoms: _363  and  _365
REMARK  145  A    between atoms: _365  and  _366
REMARK  146  A    between atoms: _365  and  _368
REMARK  147  A    between atoms: _368  and  _369
REMARK  148  A    between atoms: _369  and  _370
REMARK  149  A    between atoms: _372  and  _374
REMARK  150  A    between atoms: _374  and  _375
REMARK  151  A    between atoms: _374  and  _377
REMARK  152  A    between atoms: _377  and  _378
REMARK  153  A    between atoms: _381  and  _383
REMARK  154  A    between atoms: _383  and  _384
REMARK  155  A    between atoms: _383  and  _386
REMARK  156  A    between atoms: _386  and  _387
REMARK  157  A    between atoms: _390  and  _392
REMARK  158  A    between atoms: _392  and  _393
REMARK  159  A    between atoms: _392  and  _395
REMARK  160  A    between atoms: _395  and  _396
REMARK  161  A    between atoms: _396  and  _397
REMARK  162  A    between atoms: _400  and  _402
REMARK  163  A    between atoms: _402  and  _403
REMARK  164  A    between atoms: _402  and  _405
REMARK  165  A    between atoms: _405  and  _406
REMARK  166  A    between atoms: _411  and  _412
REMARK  167  A    between atoms: _414  and  _416
REMARK  168  A    between atoms: _416  and  _417
REMARK  169  A    between atoms: _416  and  _419
REMARK  170  A    between atoms: _419  and  _420
REMARK  171  A    between atoms: _426  and  _428
REMARK  172  A    between atoms: _428  and  _429
REMARK  173  A    between atoms: _428  and  _431
REMARK  174  A    between atoms: _431  and  _432
REMARK  175  A    between atoms: _437  and  _439
REMARK  176  A    between atoms: _439  and  _440
REMARK  177  A    between atoms: _439  and  _442
REMARK  178  A    between atoms: _442  and  _443
REMARK  179  A    between atoms: _443  and  _444
REMARK  180  A    between atoms: _447  and  _449
REMARK  181  A    between atoms: _449  and  _450
REMARK  182  A    between atoms: _449  and  _452
REMARK  183  A    between atoms: _452  and  _453
REMARK  184  A    between atoms: _458  and  _459
REMARK  185  A    between atoms: _461  and  _463
REMARK  186  A    between atoms: _463  and  _464
REMARK  187  A    between atoms: _463  and  _466
REMARK  188  A    between atoms: _466  and  _467
REMARK  189  A    between atoms: _470  and  _472
REMARK  190  A    between atoms: _472  and  _473
REMARK  191  A    between atoms: _472  and  _475
REMARK  192  A    between atoms: _475  and  _476
REMARK  193  A    between atoms: _481  and  _482
REMARK  194  A    between atoms: _484  and  _486
REMARK  195  A    between atoms: _486  and  _487
REMARK  196  A    between atoms: _486  and  _489
REMARK  197  A    between atoms: _489  and  _490
REMARK  198  A    between atoms: _493  and  _494
REMARK  199  A    between atoms: _499  and  _501
REMARK  200  A    between atoms: _501  and  _502
REMARK  201  A    between atoms: _501  and  _504
REMARK  202  A    between atoms: _504  and  _505
REMARK  203  A    between atoms: _511  and  _513
REMARK  204  A    between atoms: _513  and  _514
REMARK  205  A    between atoms: _513  and  _516
REMARK  206  A    between atoms: _516  and  _517
REMARK  207  A    between atoms: _523  and  _525
REMARK  208  A    between atoms: _525  and  _526
REMARK  209  A    between atoms: _525  and  _528
REMARK  210  A    between atoms: _528  and  _529
REMARK  211  A    between atoms: _531  and  _533
REMARK  212  A    between atoms: _533  and  _534
REMARK  213  A    between atoms: _533  and  _536
REMARK  214  A    between atoms: _536  and  _537
REMARK  215  A    between atoms: _540  and  _542
REMARK  216  A    between atoms: _542  and  _543
REMARK  217  A    between atoms: _542  and  _545
REMARK  218  A    between atoms: _545  and  _546
REMARK  219  A    between atoms: _556  and  _558
REMARK  220  A    between atoms: _558  and  _559
REMARK  221  A    between atoms: _561  and  _563
REMARK  222  A    between atoms: _563  and  _564
REMARK  223  A    between atoms: _563  and  _566
REMARK  224  A    between atoms: _566  and  _567
REMARK  225  A    between atoms: _577  and  _579
REMARK  226  A    between atoms: _579  and  _580
REMARK  227  A    between atoms: _579  and  _582
REMARK  228  A    between atoms: _582  and  _583
REMARK  229  A    between atoms: _585  and  _587
REMARK  230  A    between atoms: _587  and  _588
REMARK  231  A    between atoms: _587  and  _590
REMARK  232  A    between atoms: _590  and  _591
REMARK  233  A    between atoms: _591  and  _592
REMARK  234  A    between atoms: _597  and  _599
REMARK  235  A    between atoms: _599  and  _600
REMARK  236  A    between atoms: _599  and  _602
REMARK  237  A    between atoms: _602  and  _603
REMARK  238  A    between atoms: _605  and  _607
REMARK  239  A    between atoms: _607  and  _608
REMARK  240  A    between atoms: _607  and  _610
REMARK  241  A    between atoms: _610  and  _611
REMARK  242  A    between atoms: _614  and  _616
REMARK  243  A    between atoms: _616  and  _617
REMARK  244  A    between atoms: _616  and  _619
REMARK  245  A    between atoms: _619  and  _620
REMARK  246  A    between atoms: _620  and  _621
REMARK  247  A    between atoms: _624  and  _626
REMARK  248  A    between atoms: _626  and  _627
REMARK  249  A    between atoms: _626  and  _629
REMARK  250  A    between atoms: _629  and  _630
REMARK  251  A    between atoms: _636  and  _638
REMARK  252  A    between atoms: _638  and  _639
REMARK  253  A    between atoms: _641  and  _643
REMARK  254  A    between atoms: _643  and  _644
REMARK  255  A    between atoms: _643  and  _646
REMARK  256  A    between atoms: _646  and  _647
REMARK  257  A    between atoms: _652  and  _653
REMARK  258  A    between atoms: _655  and  _657
REMARK  259  A    between atoms: _657  and  _658
REMARK  260  A    between atoms: _657  and  _660
REMARK  261  A    between atoms: _660  and  _661
REMARK  262  A    between atoms: _666  and  _667
REMARK  263  A    between atoms: _669  and  _671
REMARK  264  A    between atoms: _671  and  _672
REMARK  265  A    between atoms: _671  and  _674
REMARK  266  A    between atoms: _674  and  _675
REMARK  267  A    between atoms: _675  and  _676
REMARK  268  A    between atoms: _676  and  _677
REMARK                            x       y       z     vdW  Elec       q    Type
REMARK                         _______ _______ _______ _____ _____    ______ ____
ROOT
ATOM      1  O   HOH     1     -22.206  -2.042 -22.155  0.00  0.00    +0.000 OA
ENDROOT
TORSDOF 0
REMARK  Name = ../refined-set-2016/3zm9/3zm9_pocket.pdb
REMARK  268 active torsions:
REMARK  status: ('A' for Active; 'I' for Inactive)
REMARK    1  A    between atoms: _1  and  _3
REMARK    2  A    between atoms: _3  and  _4
REMARK    3  A    between atoms: _3  and  _6
REMARK    4  A    between atoms: _6  and  _7
REMARK    5  A    between atoms: _10  and  _12
REMARK    6  A    between atoms: _12  and  _13
REMARK    7  A    between atoms: _12  and  _15
REMARK    8  A    between atoms: _15  and  _16
REMARK    9  A    between atoms: _16  and  _17
REMARK   10  A    between atoms: _17  and  _18
REMARK   11  A    between atoms: _27  and  _29
REMARK   12  A    between atoms: _29  and  _30
REMARK   13  A    between atoms: _29  and  _32
REMARK   14  A    between atoms: _32  and  _33
REMARK   15  A    between atoms: _38  and  _40
REMARK   16  A    between atoms: _40  and  _41
REMARK   17  A    between atoms: _40  and  _43
REMARK   18  A    between atoms: _43  and  _44
REMARK   19  A    between atoms: _47  and  _49
REMARK   20  A    between atoms: _49  and  _50
REMARK   21  A    between atoms: _49  and  _52
REMARK   22  A    between atoms: _52  and  _53
REMARK   23  A    between atoms: _53  and  _54
REMARK   24  A    between atoms: _59  and  _61
REMARK   25  A    between atoms: _61  and  _62
REMARK   26  A    between atoms: _61  and  _64
REMARK   27  A    between atoms: _67  and  _69
REMARK   28  A    between atoms: _69  and  _70
REMARK   29  A    between atoms: _69  and  _72
REMARK   30  A    between atoms: _72  and  _73
REMARK   31  A    between atoms: _76  and  _78
REMARK   32  A    between atoms: _78  and  _79
REMARK   33  A    between atoms: _78  and  _81
REMARK   34  A    between atoms: _81  and  _82
REMARK   35  A    between atoms: _85  and  _87
REMARK   36  A    between atoms: _87  and  _88
REMARK   37  A    between atoms: _87  and  _90
REMARK   38  A    between atoms: _90  and  _91
REMARK   39  A    between atoms: _91  and  _92
REMARK   40  A    between atoms: _92  and  _93
REMARK   41  A    between atoms: _102  and  _104
REMARK   42  A    between atoms: _104  and  _105
REMARK   43  A    between atoms: _104  and  _107
REMARK   44  A    between atoms: _107  and  _108
REMARK   45  A    between atoms: _114  and  _116
REMARK   46  A    between atoms: _116  and  _117
REMARK   47  A    between atoms: _120  and  _121
REMARK   48  A    between atoms: _126  and  _128
REMARK   49  A    between atoms: _128  and  _129
REMARK   50  A    between atoms: _128  and  _131
REMARK   51  A    between atoms: _131  and  _132
REMARK   52  A    between atoms: _132  and  _133
REMARK   53  A    between atoms: _133  and  _134
REMARK   54  A    between atoms: _134  and  _135
REMARK   55  A    between atoms: _139  and  _141
REMARK   56  A    between atoms: _141  and  _142
REMARK   57  A    between atoms: _141  and  _144
REMARK   58  A    between atoms: _144  and  _145
REMARK   59  A    between atoms: _145  and  _146
REMARK   60  A    between atoms: _146  and  _147
REMARK   61  A    between atoms: _156  and  _158
REMARK   62  A    between atoms: _158  and  _159
REMARK   63  A    between atoms: _158  and  _161
REMARK   64  A    between atoms: _161  and  _162
REMARK   65  A    between atoms: _165  and  _167
REMARK   66  A    between atoms: _167  and  _168
REMARK   67  A    between atoms: _167  and  _170
REMARK   68  A    between atoms: _170  and  _171
REMARK   69  A    between atoms: _171  and  _172
REMARK   70  A    between atoms: _175  and  _177
REMARK   71  A    between atoms: _177  and  _178
REMARK   72  A    between atoms: _177  and  _180
REMARK   73  A    between atoms: _180  and  _181
REMARK   74  A    between atoms: _181  and  _182
REMARK   75  A    between atoms: _187  and  _189
REMARK   76  A    between atoms: _189  and  _190
REMARK   77  A    between atoms: _189  and  _192
REMARK   78  A    between atoms: _192  and  _193
REMARK   79  A    between atoms: _199  and  _201
REMARK   80  A    between atoms: _201  and  _202
REMARK   81  A    between atoms: _201  and  _204
REMARK   82  A    between atoms: _204  and  _205
REMARK   83  A    between atoms: _209  and  _210
REMARK   84  A    between atoms: _215  and  _217
REMARK   85  A    between atoms: _217  and  _218
REMARK   86  A    between atoms: _217  and  _220
REMARK   87  A    between atoms: _220  and  _221
REMARK   88  A    between atoms: _223  and  _225
REMARK   89  A    between atoms: _225  and  _226
REMARK   90  A    between atoms: _225  and  _228
REMARK   91  A    between atoms: _228  and  _229
REMARK   92  A    between atoms: _229  and  _230
REMARK   93  A    between atoms: _230  and  _231
REMARK   94  A    between atoms: _240  and  _242
REMARK   95  A    between atoms: _242  and  _243
REMARK   96  A    between atoms: _242  and  _245
REMARK   97  A    between atoms: _245  and  _246
REMARK   98  A    between atoms: _246  and  _247
REMARK   99  A    between atoms: _247  and  _248
REMARK  100  A    between atoms: _257  and  _259
REMARK  101  A    between atoms: _259  and  _260
REMARK  102  A    between atoms: _259  and  _262
REMARK  103  A    between atoms: _262  and  _263
REMARK  104  A    between atoms: _266  and  _268
REMARK  105  A    between atoms: _268  and  _269
REMARK  106  A    between atoms: _268  and  _271
REMARK  107  A    between atoms: _271  and  _272
REMARK  108  A    between atoms: _277  and  _278
REMARK  109  A    between atoms: _280  and  _282
REMARK  110  A    between atoms: _282  and  _283
REMARK  111  A    between atoms: _282  and  _285
REMARK  112  A    between atoms: _285  and  _286
REMARK  113  A    between atoms: _291  and  _293
REMARK  114  A    between atoms: _293  and  _294
REMARK  115  A    between atoms: _293  and  _296
REMARK  116  A    between atoms: _296  and  _297
REMARK  117  A    between atoms: _300  and  _302
REMARK  118  A    between atoms: _302  and  _303
REMARK  119  A    between atoms: _302  and  _305
REMARK  120  A    between atoms: _307  and  _309
REMARK  121  A    between atoms: _309  and  _310
REMARK  122  A    between atoms: _309  and  _312
REMARK  123  A    between atoms: _312  and  _313
REMARK  124  A    between atoms: _313  and  _314
REMARK  125  A    between atoms: _319  and  _321
REMARK  126  A    between atoms: _321  and  _322
REMARK  127  A    between atoms: _321  and  _324
REMARK  128  A    between atoms: _324  and  _325
REMARK  129  A    between atoms: _325  and  _326
REMARK  130  A    between atoms: _329  and  _331
REMARK  131  A    between atoms: _331  and  _332
REMARK  132  A    between atoms: _334  and  _336
REMARK  133  A    between atoms: _336  and  _337
REMARK  134  A    between atoms: _336  and  _339
REMARK  135  A    between atoms: _339  and  _340
REMARK  136  A    between atoms: _345  and  _347
REMARK  137  A    between atoms: _347  and  _348
REMARK  138  A    between atoms: _347  and  _350
REMARK  139  A    between atoms: _350  and  _351
REMARK  140  A    between atoms: _354  and  _356
REMARK  141  A    between atoms: _356  and  _357
REMARK  142  A    between atoms: _356  and  _359
REMARK  143  A    between atoms: _359  and  _360
REMARK  144  A    between atoms: _363  and  _365
REMARK  145  A    between atoms: _365  and  _366
REMARK  146  A    between atoms: _365  and  _368
REMARK  147  A    between atoms: _368  and  _369
REMARK  148  A    between atoms: _369  and  _370
REMARK  149  A    between atoms: _372  and  _374
REMARK  150  A    between atoms: _374  and  _375
REMARK  151  A    between atoms: _374  and  _377
REMARK  152  A    between atoms: _377  and  _378
REMARK  153  A    between atoms: _381  and  _383
REMARK  154  A    between atoms: _383  and  _384
REMARK  155  A    between atoms: _383  and  _386
REMARK  156  A    between atoms: _386  and  _387
REMARK  157  A    between atoms: _390  and  _392
REMARK  158  A    between atoms: _392  and  _393
REMARK  159  A    between atoms: _392  and  _395
REMARK  160  A    between atoms: _395  and  _396
REMARK  161  A    between atoms: _396  and  _397
REMARK  162  A    between atoms: _400  and  _402
REMARK  163  A    between atoms: _402  and  _403
REMARK  164  A    between atoms: _402  and  _405
REMARK  165  A    between atoms: _405  and  _406
REMARK  166  A    between atoms: _411  and  _412
REMARK  167  A    between atoms: _414  and  _416
REMARK  168  A    between atoms: _416  and  _417
REMARK  169  A    between atoms: _416  and  _419
REMARK  170  A    between atoms: _419  and  _420
REMARK  171  A    between atoms: _426  and  _428
REMARK  172  A    between atoms: _428  and  _429
REMARK  173  A    between atoms: _428  and  _431
REMARK  174  A    between atoms: _431  and  _432
REMARK  175  A    between atoms: _437  and  _439
REMARK  176  A    between atoms: _439  and  _440
REMARK  177  A    between atoms: _439  and  _442
REMARK  178  A    between atoms: _442  and  _443
REMARK  179  A    between atoms: _443  and  _444
REMARK  180  A    between atoms: _447  and  _449
REMARK  181  A    between atoms: _449  and  _450
REMARK  182  A    between atoms: _449  and  _452
REMARK  183  A    between atoms: _452  and  _453
REMARK  184  A    between atoms: _458  and  _459
REMARK  185  A    between atoms: _461  and  _463
REMARK  186  A    between atoms: _463  and  _464
REMARK  187  A    between atoms: _463  and  _466
REMARK  188  A    between atoms: _466  and  _467
REMARK  189  A    between atoms: _470  and  _472
REMARK  190  A    between atoms: _472  and  _473
REMARK  191  A    between atoms: _472  and  _475
REMARK  192  A    between atoms: _475  and  _476
REMARK  193  A    between atoms: _481  and  _482
REMARK  194  A    between atoms: _484  and  _486
REMARK  195  A    between atoms: _486  and  _487
REMARK  196  A    between atoms: _486  and  _489
REMARK  197  A    between atoms: _489  and  _490
REMARK  198  A    between atoms: _493  and  _494
REMARK  199  A    between atoms: _499  and  _501
REMARK  200  A    between atoms: _501  and  _502
REMARK  201  A    between atoms: _501  and  _504
REMARK  202  A    between atoms: _504  and  _505
REMARK  203  A    between atoms: _511  and  _513
REMARK  204  A    between atoms: _513  and  _514
REMARK  205  A    between atoms: _513  and  _516
REMARK  206  A    between atoms: _516  and  _517
REMARK  207  A    between atoms: _523  and  _525
REMARK  208  A    between atoms: _525  and  _526
REMARK  209  A    between atoms: _525  and  _528
REMARK  210  A    between atoms: _528  and  _529
REMARK  211  A    between atoms: _531  and  _533
REMARK  212  A    between atoms: _533  and  _534
REMARK  213  A    between atoms: _533  and  _536
REMARK  214  A    between atoms: _536  and  _537
REMARK  215  A    between atoms: _540  and  _542
REMARK  216  A    between atoms: _542  and  _543
REMARK  217  A    between atoms: _542  and  _545
REMARK  218  A    between atoms: _545  and  _546
REMARK  219  A    between atoms: _556  and  _558
REMARK  220  A    between atoms: _558  and  _559
REMARK  221  A    between atoms: _561  and  _563
REMARK  222  A    between atoms: _563  and  _564
REMARK  223  A    between atoms: _563  and  _566
REMARK  224  A    between atoms: _566  and  _567
REMARK  225  A    between atoms: _577  and  _579
REMARK  226  A    between atoms: _579  and  _580
REMARK  227  A    between atoms: _579  and  _582
REMARK  228  A    between atoms: _582  and  _583
REMARK  229  A    between atoms: _585  and  _587
REMARK  230  A    between atoms: _587  and  _588
REMARK  231  A    between atoms: _587  and  _590
REMARK  232  A    between atoms: _590  and  _591
REMARK  233  A    between atoms: _591  and  _592
REMARK  234  A    between atoms: _597  and  _599
REMARK  235  A    between atoms: _599  and  _600
REMARK  236  A    between atoms: _599  and  _602
REMARK  237  A    between atoms: _602  and  _603
REMARK  238  A    between atoms: _605  and  _607
REMARK  239  A    between atoms: _607  and  _608
REMARK  240  A    between atoms: _607  and  _610
REMARK  241  A    between atoms: _610  and  _611
REMARK  242  A    between atoms: _614  and  _616
REMARK  243  A    between atoms: _616  and  _617
REMARK  244  A    between atoms: _616  and  _619
REMARK  245  A    between atoms: _619  and  _620
REMARK  246  A    between atoms: _620  and  _621
REMARK  247  A    between atoms: _624  and  _626
REMARK  248  A    between atoms: _626  and  _627
REMARK  249  A    between atoms: _626  and  _629
REMARK  250  A    between atoms: _629  and  _630
REMARK  251  A    between atoms: _636  and  _638
REMARK  252  A    between atoms: _638  and  _639
REMARK  253  A    between atoms: _641  and  _643
REMARK  254  A    between atoms: _643  and  _644
REMARK  255  A    between atoms: _643  and  _646
REMARK  256  A    between atoms: _646  and  _647
REMARK  257  A    between atoms: _652  and  _653
REMARK  258  A    between atoms: _655  and  _657
REMARK  259  A    between atoms: _657  and  _658
REMARK  260  A    between atoms: _657  and  _660
REMARK  261  A    between atoms: _660  and  _661
REMARK  262  A    between atoms: _666  and  _667
REMARK  263  A    between atoms: _669  and  _671
REMARK  264  A    between atoms: _671  and  _672
REMARK  265  A    between atoms: _671  and  _674
REMARK  266  A    between atoms: _674  and  _675
REMARK  267  A    between atoms: _675  and  _676
REMARK  268  A    between atoms: _676  and  _677
REMARK                            x       y       z     vdW  Elec       q    Type
REMARK                         _______ _______ _______ _____ _____    ______ ____
ROOT
ATOM      1  O   HOH     1     -14.743   6.945 -14.307  0.00  0.00    +0.000 OA
ENDROOT
TORSDOF 0
REMARK  Name = ../refined-set-2016/3zm9/3zm9_pocket.pdb
REMARK  268 active torsions:
REMARK  status: ('A' for Active; 'I' for Inactive)
REMARK    1  A    between atoms: _1  and  _3
REMARK    2  A    between atoms: _3  and  _4
REMARK    3  A    between atoms: _3  and  _6
REMARK    4  A    between atoms: _6  and  _7
REMARK    5  A    between atoms: _10  and  _12
REMARK    6  A    between atoms: _12  and  _13
REMARK    7  A    between atoms: _12  and  _15
REMARK    8  A    between atoms: _15  and  _16
REMARK    9  A    between atoms: _16  and  _17
REMARK   10  A    between atoms: _17  and  _18
REMARK   11  A    between atoms: _27  and  _29
REMARK   12  A    between atoms: _29  and  _30
REMARK   13  A    between atoms: _29  and  _32
REMARK   14  A    between atoms: _32  and  _33
REMARK   15  A    between atoms: _38  and  _40
REMARK   16  A    between atoms: _40  and  _41
REMARK   17  A    between atoms: _40  and  _43
REMARK   18  A    between atoms: _43  and  _44
REMARK   19  A    between atoms: _47  and  _49
REMARK   20  A    between atoms: _49  and  _50
REMARK   21  A    between atoms: _49  and  _52
REMARK   22  A    between atoms: _52  and  _53
REMARK   23  A    between atoms: _53  and  _54
REMARK   24  A    between atoms: _59  and  _61
REMARK   25  A    between atoms: _61  and  _62
REMARK   26  A    between atoms: _61  and  _64
REMARK   27  A    between atoms: _67  and  _69
REMARK   28  A    between atoms: _69  and  _70
REMARK   29  A    between atoms: _69  and  _72
REMARK   30  A    between atoms: _72  and  _73
REMARK   31  A    between atoms: _76  and  _78
REMARK   32  A    between atoms: _78  and  _79
REMARK   33  A    between atoms: _78  and  _81
REMARK   34  A    between atoms: _81  and  _82
REMARK   35  A    between atoms: _85  and  _87
REMARK   36  A    between atoms: _87  and  _88
REMARK   37  A    between atoms: _87  and  _90
REMARK   38  A    between atoms: _90  and  _91
REMARK   39  A    between atoms: _91  and  _92
REMARK   40  A    between atoms: _92  and  _93
REMARK   41  A    between atoms: _102  and  _104
REMARK   42  A    between atoms: _104  and  _105
REMARK   43  A    between atoms: _104  and  _107
REMARK   44  A    between atoms: _107  and  _108
REMARK   45  A    between atoms: _114  and  _116
REMARK   46  A    between atoms: _116  and  _117
REMARK   47  A    between atoms: _120  and  _121
REMARK   48  A    between atoms: _126  and  _128
REMARK   49  A    between atoms: _128  and  _129
REMARK   50  A    between atoms: _128  and  _131
REMARK   51  A    between atoms: _131  and  _132
REMARK   52  A    between atoms: _132  and  _133
REMARK   53  A    between atoms: _133  and  _134
REMARK   54  A    between atoms: _134  and  _135
REMARK   55  A    between atoms: _139  and  _141
REMARK   56  A    between atoms: _141  and  _142
REMARK   57  A    between atoms: _141  and  _144
REMARK   58  A    between atoms: _144  and  _145
REMARK   59  A    between atoms: _145  and  _146
REMARK   60  A    between atoms: _146  and  _147
REMARK   61  A    between atoms: _156  and  _158
REMARK   62  A    between atoms: _158  and  _159
REMARK   63  A    between atoms: _158  and  _161
REMARK   64  A    between atoms: _161  and  _162
REMARK   65  A    between atoms: _165  and  _167
REMARK   66  A    between atoms: _167  and  _168
REMARK   67  A    between atoms: _167  and  _170
REMARK   68  A    between atoms: _170  and  _171
REMARK   69  A    between atoms: _171  and  _172
REMARK   70  A    between atoms: _175  and  _177
REMARK   71  A    between atoms: _177  and  _178
REMARK   72  A    between atoms: _177  and  _180
REMARK   73  A    between atoms: _180  and  _181
REMARK   74  A    between atoms: _181  and  _182
REMARK   75  A    between atoms: _187  and  _189
REMARK   76  A    between atoms: _189  and  _190
REMARK   77  A    between atoms: _189  and  _192
REMARK   78  A    between atoms: _192  and  _193
REMARK   79  A    between atoms: _199  and  _201
REMARK   80  A    between atoms: _201  and  _202
REMARK   81  A    between atoms: _201  and  _204
REMARK   82  A    between atoms: _204  and  _205
REMARK   83  A    between atoms: _209  and  _210
REMARK   84  A    between atoms: _215  and  _217
REMARK   85  A    between atoms: _217  and  _218
REMARK   86  A    between atoms: _217  and  _220
REMARK   87  A    between atoms: _220  and  _221
REMARK   88  A    between atoms: _223  and  _225
REMARK   89  A    between atoms: _225  and  _226
REMARK   90  A    between atoms: _225  and  _228
REMARK   91  A    between atoms: _228  and  _229
REMARK   92  A    between atoms: _229  and  _230
REMARK   93  A    between atoms: _230  and  _231
REMARK   94  A    between atoms: _240  and  _242
REMARK   95  A    between atoms: _242  and  _243
REMARK   96  A    between atoms: _242  and  _245
REMARK   97  A    between atoms: _245  and  _246
REMARK   98  A    between atoms: _246  and  _247
REMARK   99  A    between atoms: _247  and  _248
REMARK  100  A    between atoms: _257  and  _259
REMARK  101  A    between atoms: _259  and  _260
REMARK  102  A    between atoms: _259  and  _262
REMARK  103  A    between atoms: _262  and  _263
REMARK  104  A    between atoms: _266  and  _268
REMARK  105  A    between atoms: _268  and  _269
REMARK  106  A    between atoms: _268  and  _271
REMARK  107  A    between atoms: _271  and  _272
REMARK  108  A    between atoms: _277  and  _278
REMARK  109  A    between atoms: _280  and  _282
REMARK  110  A    between atoms: _282  and  _283
REMARK  111  A    between atoms: _282  and  _285
REMARK  112  A    between atoms: _285  and  _286
REMARK  113  A    between atoms: _291  and  _293
REMARK  114  A    between atoms: _293  and  _294
REMARK  115  A    between atoms: _293  and  _296
REMARK  116  A    between atoms: _296  and  _297
REMARK  117  A    between atoms: _300  and  _302
REMARK  118  A    between atoms: _302  and  _303
REMARK  119  A    between atoms: _302  and  _305
REMARK  120  A    between atoms: _307  and  _309
REMARK  121  A    between atoms: _309  and  _310
REMARK  122  A    between atoms: _309  and  _312
REMARK  123  A    between atoms: _312  and  _313
REMARK  124  A    between atoms: _313  and  _314
REMARK  125  A    between atoms: _319  and  _321
REMARK  126  A    between atoms: _321  and  _322
REMARK  127  A    between atoms: _321  and  _324
REMARK  128  A    between atoms: _324  and  _325
REMARK  129  A    between atoms: _325  and  _326
REMARK  130  A    between atoms: _329  and  _331
REMARK  131  A    between atoms: _331  and  _332
REMARK  132  A    between atoms: _334  and  _336
REMARK  133  A    between atoms: _336  and  _337
REMARK  134  A    between atoms: _336  and  _339
REMARK  135  A    between atoms: _339  and  _340
REMARK  136  A    between atoms: _345  and  _347
REMARK  137  A    between atoms: _347  and  _348
REMARK  138  A    between atoms: _347  and  _350
REMARK  139  A    between atoms: _350  and  _351
REMARK  140  A    between atoms: _354  and  _356
REMARK  141  A    between atoms: _356  and  _357
REMARK  142  A    between atoms: _356  and  _359
REMARK  143  A    between atoms: _359  and  _360
REMARK  144  A    between atoms: _363  and  _365
REMARK  145  A    between atoms: _365  and  _366
REMARK  146  A    between atoms: _365  and  _368
REMARK  147  A    between atoms: _368  and  _369
REMARK  148  A    between atoms: _369  and  _370
REMARK  149  A    between atoms: _372  and  _374
REMARK  150  A    between atoms: _374  and  _375
REMARK  151  A    between atoms: _374  and  _377
REMARK  152  A    between atoms: _377  and  _378
REMARK  153  A    between atoms: _381  and  _383
REMARK  154  A    between atoms: _383  and  _384
REMARK  155  A    between atoms: _383  and  _386
REMARK  156  A    between atoms: _386  and  _387
REMARK  157  A    between atoms: _390  and  _392
REMARK  158  A    between atoms: _392  and  _393
REMARK  159  A    between atoms: _392  and  _395
REMARK  160  A    between atoms: _395  and  _396
REMARK  161  A    between atoms: _396  and  _397
REMARK  162  A    between atoms: _400  and  _402
REMARK  163  A    between atoms: _402  and  _403
REMARK  164  A    between atoms: _402  and  _405
REMARK  165  A    between atoms: _405  and  _406
REMARK  166  A    between atoms: _411  and  _412
REMARK  167  A    between atoms: _414  and  _416
REMARK  168  A    between atoms: _416  and  _417
REMARK  169  A    between atoms: _416  and  _419
REMARK  170  A    between atoms: _419  and  _420
REMARK  171  A    between atoms: _426  and  _428
REMARK  172  A    between atoms: _428  and  _429
REMARK  173  A    between atoms: _428  and  _431
REMARK  174  A    between atoms: _431  and  _432
REMARK  175  A    between atoms: _437  and  _439
REMARK  176  A    between atoms: _439  and  _440
REMARK  177  A    between atoms: _439  and  _442
REMARK  178  A    between atoms: _442  and  _443
REMARK  179  A    between atoms: _443  and  _444
REMARK  180  A    between atoms: _447  and  _449
REMARK  181  A    between atoms: _449  and  _450
REMARK  182  A    between atoms: _449  and  _452
REMARK  183  A    between atoms: _452  and  _453
REMARK  184  A    between atoms: _458  and  _459
REMARK  185  A    between atoms: _461  and  _463
REMARK  186  A    between atoms: _463  and  _464
REMARK  187  A    between atoms: _463  and  _466
REMARK  188  A    between atoms: _466  and  _467
REMARK  189  A    between atoms: _470  and  _472
REMARK  190  A    between atoms: _472  and  _473
REMARK  191  A    between atoms: _472  and  _475
REMARK  192  A    between atoms: _475  and  _476
REMARK  193  A    between atoms: _481  and  _482
REMARK  194  A    between atoms: _484  and  _486
REMARK  195  A    between atoms: _486  and  _487
REMARK  196  A    between atoms: _486  and  _489
REMARK  197  A    between atoms: _489  and  _490
REMARK  198  A    between atoms: _493  and  _494
REMARK  199  A    between atoms: _499  and  _501
REMARK  200  A    between atoms: _501  and  _502
REMARK  201  A    between atoms: _501  and  _504
REMARK  202  A    between atoms: _504  and  _505
REMARK  203  A    between atoms: _511  and  _513
REMARK  204  A    between atoms: _513  and  _514
REMARK  205  A    between atoms: _513  and  _516
REMARK  206  A    between atoms: _516  and  _517
REMARK  207  A    between atoms: _523  and  _525
REMARK  208  A    between atoms: _525  and  _526
REMARK  209  A    between atoms: _525  and  _528
REMARK  210  A    between atoms: _528  and  _529
REMARK  211  A    between atoms: _531  and  _533
REMARK  212  A    between atoms: _533  and  _534
REMARK  213  A    between atoms: _533  and  _536
REMARK  214  A    between atoms: _536  and  _537
REMARK  215  A    between atoms: _540  and  _542
REMARK  216  A    between atoms: _542  and  _543
REMARK  217  A    between atoms: _542  and  _545
REMARK  218  A    between atoms: _545  and  _546
REMARK  219  A    between atoms: _556  and  _558
REMARK  220  A    between atoms: _558  and  _559
REMARK  221  A    between atoms: _561  and  _563
REMARK  222  A    between atoms: _563  and  _564
REMARK  223  A    between atoms: _563  and  _566
REMARK  224  A    between atoms: _566  and  _567
REMARK  225  A    between atoms: _577  and  _579
REMARK  226  A    between atoms: _579  and  _580
REMARK  227  A    between atoms: _579  and  _582
REMARK  228  A    between atoms: _582  and  _583
REMARK  229  A    between atoms: _585  and  _587
REMARK  230  A    between atoms: _587  and  _588
REMARK  231  A    between atoms: _587  and  _590
REMARK  232  A    between atoms: _590  and  _591
REMARK  233  A    between atoms: _591  and  _592
REMARK  234  A    between atoms: _597  and  _599
REMARK  235  A    between atoms: _599  and  _600
REMARK  236  A    between atoms: _599  and  _602
REMARK  237  A    between atoms: _602  and  _603
REMARK  238  A    between atoms: _605  and  _607
REMARK  239  A    between atoms: _607  and  _608
REMARK  240  A    between atoms: _607  and  _610
REMARK  241  A    between atoms: _610  and  _611
REMARK  242  A    between atoms: _614  and  _616
REMARK  243  A    between atoms: _616  and  _617
REMARK  244  A    between atoms: _616  and  _619
REMARK  245  A    between atoms: _619  and  _620
REMARK  246  A    between atoms: _620  and  _621
REMARK  247  A    between atoms: _624  and  _626
REMARK  248  A    between atoms: _626  and  _627
REMARK  249  A    between atoms: _626  and  _629
REMARK  250  A    between atoms: _629  and  _630
REMARK  251  A    between atoms: _636  and  _638
REMARK  252  A    between atoms: _638  and  _639
REMARK  253  A    between atoms: _641  and  _643
REMARK  254  A    between atoms: _643  and  _644
REMARK  255  A    between atoms: _643  and  _646
REMARK  256  A    between atoms: _646  and  _647
REMARK  257  A    between atoms: _652  and  _653
REMARK  258  A    between atoms: _655  and  _657
REMARK  259  A    between atoms: _657  and  _658
REMARK  260  A    between atoms: _657  and  _660
REMARK  261  A    between atoms: _660  and  _661
REMARK  262  A    between atoms: _666  and  _667
REMARK  263  A    between atoms: _669  and  _671
REMARK  264  A    between atoms: _671  and  _672
REMARK  265  A    between atoms: _671  and  _674
REMARK  266  A    between atoms: _674  and  _675
REMARK  267  A    between atoms: _675  and  _676
REMARK  268  A    between atoms: _676  and  _677
REMARK                            x       y       z     vdW  Elec       q    Type
REMARK                         _______ _______ _______ _____ _____    ______ ____
ROOT
ATOM      1  O   HOH     1     -15.414   2.538 -14.855  0.00  0.00    +0.000 OA
ENDROOT
TORSDOF 0
REMARK  Name = ../refined-set-2016/3zm9/3zm9_pocket.pdb
REMARK  268 active torsions:
REMARK  status: ('A' for Active; 'I' for Inactive)
REMARK    1  A    between atoms: _1  and  _3
REMARK    2  A    between atoms: _3  and  _4
REMARK    3  A    between atoms: _3  and  _6
REMARK    4  A    between atoms: _6  and  _7
REMARK    5  A    between atoms: _10  and  _12
REMARK    6  A    between atoms: _12  and  _13
REMARK    7  A    between atoms: _12  and  _15
REMARK    8  A    between atoms: _15  and  _16
REMARK    9  A    between atoms: _16  and  _17
REMARK   10  A    between atoms: _17  and  _18
REMARK   11  A    between atoms: _27  and  _29
REMARK   12  A    between atoms: _29  and  _30
REMARK   13  A    between atoms: _29  and  _32
REMARK   14  A    between atoms: _32  and  _33
REMARK   15  A    between atoms: _38  and  _40
REMARK   16  A    between atoms: _40  and  _41
REMARK   17  A    between atoms: _40  and  _43
REMARK   18  A    between atoms: _43  and  _44
REMARK   19  A    between atoms: _47  and  _49
REMARK   20  A    between atoms: _49  and  _50
REMARK   21  A    between atoms: _49  and  _52
REMARK   22  A    between atoms: _52  and  _53
REMARK   23  A    between atoms: _53  and  _54
REMARK   24  A    between atoms: _59  and  _61
REMARK   25  A    between atoms: _61  and  _62
REMARK   26  A    between atoms: _61  and  _64
REMARK   27  A    between atoms: _67  and  _69
REMARK   28  A    between atoms: _69  and  _70
REMARK   29  A    between atoms: _69  and  _72
REMARK   30  A    between atoms: _72  and  _73
REMARK   31  A    between atoms: _76  and  _78
REMARK   32  A    between atoms: _78  and  _79
REMARK   33  A    between atoms: _78  and  _81
REMARK   34  A    between atoms: _81  and  _82
REMARK   35  A    between atoms: _85  and  _87
REMARK   36  A    between atoms: _87  and  _88
REMARK   37  A    between atoms: _87  and  _90
REMARK   38  A    between atoms: _90  and  _91
REMARK   39  A    between atoms: _91  and  _92
REMARK   40  A    between atoms: _92  and  _93
REMARK   41  A    between atoms: _102  and  _104
REMARK   42  A    between atoms: _104  and  _105
REMARK   43  A    between atoms: _104  and  _107
REMARK   44  A    between atoms: _107  and  _108
REMARK   45  A    between atoms: _114  and  _116
REMARK   46  A    between atoms: _116  and  _117
REMARK   47  A    between atoms: _120  and  _121
REMARK   48  A    between atoms: _126  and  _128
REMARK   49  A    between atoms: _128  and  _129
REMARK   50  A    between atoms: _128  and  _131
REMARK   51  A    between atoms: _131  and  _132
REMARK   52  A    between atoms: _132  and  _133
REMARK   53  A    between atoms: _133  and  _134
REMARK   54  A    between atoms: _134  and  _135
REMARK   55  A    between atoms: _139  and  _141
REMARK   56  A    between atoms: _141  and  _142
REMARK   57  A    between atoms: _141  and  _144
REMARK   58  A    between atoms: _144  and  _145
REMARK   59  A    between atoms: _145  and  _146
REMARK   60  A    between atoms: _146  and  _147
REMARK   61  A    between atoms: _156  and  _158
REMARK   62  A    between atoms: _158  and  _159
REMARK   63  A    between atoms: _158  and  _161
REMARK   64  A    between atoms: _161  and  _162
REMARK   65  A    between atoms: _165  and  _167
REMARK   66  A    between atoms: _167  and  _168
REMARK   67  A    between atoms: _167  and  _170
REMARK   68  A    between atoms: _170  and  _171
REMARK   69  A    between atoms: _171  and  _172
REMARK   70  A    between atoms: _175  and  _177
REMARK   71  A    between atoms: _177  and  _178
REMARK   72  A    between atoms: _177  and  _180
REMARK   73  A    between atoms: _180  and  _181
REMARK   74  A    between atoms: _181  and  _182
REMARK   75  A    between atoms: _187  and  _189
REMARK   76  A    between atoms: _189  and  _190
REMARK   77  A    between atoms: _189  and  _192
REMARK   78  A    between atoms: _192  and  _193
REMARK   79  A    between atoms: _199  and  _201
REMARK   80  A    between atoms: _201  and  _202
REMARK   81  A    between atoms: _201  and  _204
REMARK   82  A    between atoms: _204  and  _205
REMARK   83  A    between atoms: _209  and  _210
REMARK   84  A    between atoms: _215  and  _217
REMARK   85  A    between atoms: _217  and  _218
REMARK   86  A    between atoms: _217  and  _220
REMARK   87  A    between atoms: _220  and  _221
REMARK   88  A    between atoms: _223  and  _225
REMARK   89  A    between atoms: _225  and  _226
REMARK   90  A    between atoms: _225  and  _228
REMARK   91  A    between atoms: _228  and  _229
REMARK   92  A    between atoms: _229  and  _230
REMARK   93  A    between atoms: _230  and  _231
REMARK   94  A    between atoms: _240  and  _242
REMARK   95  A    between atoms: _242  and  _243
REMARK   96  A    between atoms: _242  and  _245
REMARK   97  A    between atoms: _245  and  _246
REMARK   98  A    between atoms: _246  and  _247
REMARK   99  A    between atoms: _247  and  _248
REMARK  100  A    between atoms: _257  and  _259
REMARK  101  A    between atoms: _259  and  _260
REMARK  102  A    between atoms: _259  and  _262
REMARK  103  A    between atoms: _262  and  _263
REMARK  104  A    between atoms: _266  and  _268
REMARK  105  A    between atoms: _268  and  _269
REMARK  106  A    between atoms: _268  and  _271
REMARK  107  A    between atoms: _271  and  _272
REMARK  108  A    between atoms: _277  and  _278
REMARK  109  A    between atoms: _280  and  _282
REMARK  110  A    between atoms: _282  and  _283
REMARK  111  A    between atoms: _282  and  _285
REMARK  112  A    between atoms: _285  and  _286
REMARK  113  A    between atoms: _291  and  _293
REMARK  114  A    between atoms: _293  and  _294
REMARK  115  A    between atoms: _293  and  _296
REMARK  116  A    between atoms: _296  and  _297
REMARK  117  A    between atoms: _300  and  _302
REMARK  118  A    between atoms: _302  and  _303
REMARK  119  A    between atoms: _302  and  _305
REMARK  120  A    between atoms: _307  and  _309
REMARK  121  A    between atoms: _309  and  _310
REMARK  122  A    between atoms: _309  and  _312
REMARK  123  A    between atoms: _312  and  _313
REMARK  124  A    between atoms: _313  and  _314
REMARK  125  A    between atoms: _319  and  _321
REMARK  126  A    between atoms: _321  and  _322
REMARK  127  A    between atoms: _321  and  _324
REMARK  128  A    between atoms: _324  and  _325
REMARK  129  A    between atoms: _325  and  _326
REMARK  130  A    between atoms: _329  and  _331
REMARK  131  A    between atoms: _331  and  _332
REMARK  132  A    between atoms: _334  and  _336
REMARK  133  A    between atoms: _336  and  _337
REMARK  134  A    between atoms: _336  and  _339
REMARK  135  A    between atoms: _339  and  _340
REMARK  136  A    between atoms: _345  and  _347
REMARK  137  A    between atoms: _347  and  _348
REMARK  138  A    between atoms: _347  and  _350
REMARK  139  A    between atoms: _350  and  _351
REMARK  140  A    between atoms: _354  and  _356
REMARK  141  A    between atoms: _356  and  _357
REMARK  142  A    between atoms: _356  and  _359
REMARK  143  A    between atoms: _359  and  _360
REMARK  144  A    between atoms: _363  and  _365
REMARK  145  A    between atoms: _365  and  _366
REMARK  146  A    between atoms: _365  and  _368
REMARK  147  A    between atoms: _368  and  _369
REMARK  148  A    between atoms: _369  and  _370
REMARK  149  A    between atoms: _372  and  _374
REMARK  150  A    between atoms: _374  and  _375
REMARK  151  A    between atoms: _374  and  _377
REMARK  152  A    between atoms: _377  and  _378
REMARK  153  A    between atoms: _381  and  _383
REMARK  154  A    between atoms: _383  and  _384
REMARK  155  A    between atoms: _383  and  _386
REMARK  156  A    between atoms: _386  and  _387
REMARK  157  A    between atoms: _390  and  _392
REMARK  158  A    between atoms: _392  and  _393
REMARK  159  A    between atoms: _392  and  _395
REMARK  160  A    between atoms: _395  and  _396
REMARK  161  A    between atoms: _396  and  _397
REMARK  162  A    between atoms: _400  and  _402
REMARK  163  A    between atoms: _402  and  _403
REMARK  164  A    between atoms: _402  and  _405
REMARK  165  A    between atoms: _405  and  _406
REMARK  166  A    between atoms: _411  and  _412
REMARK  167  A    between atoms: _414  and  _416
REMARK  168  A    between atoms: _416  and  _417
REMARK  169  A    between atoms: _416  and  _419
REMARK  170  A    between atoms: _419  and  _420
REMARK  171  A    between atoms: _426  and  _428
REMARK  172  A    between atoms: _428  and  _429
REMARK  173  A    between atoms: _428  and  _431
REMARK  174  A    between atoms: _431  and  _432
REMARK  175  A    between atoms: _437  and  _439
REMARK  176  A    between atoms: _439  and  _440
REMARK  177  A    between atoms: _439  and  _442
REMARK  178  A    between atoms: _442  and  _443
REMARK  179  A    between atoms: _443  and  _444
REMARK  180  A    between atoms: _447  and  _449
REMARK  181  A    between atoms: _449  and  _450
REMARK  182  A    between atoms: _449  and  _452
REMARK  183  A    between atoms: _452  and  _453
REMARK  184  A    between atoms: _458  and  _459
REMARK  185  A    between atoms: _461  and  _463
REMARK  186  A    between atoms: _463  and  _464
REMARK  187  A    between atoms: _463  and  _466
REMARK  188  A    between atoms: _466  and  _467
REMARK  189  A    between atoms: _470  and  _472
REMARK  190  A    between atoms: _472  and  _473
REMARK  191  A    between atoms: _472  and  _475
REMARK  192  A    between atoms: _475  and  _476
REMARK  193  A    between atoms: _481  and  _482
REMARK  194  A    between atoms: _484  and  _486
REMARK  195  A    between atoms: _486  and  _487
REMARK  196  A    between atoms: _486  and  _489
REMARK  197  A    between atoms: _489  and  _490
REMARK  198  A    between atoms: _493  and  _494
REMARK  199  A    between atoms: _499  and  _501
REMARK  200  A    between atoms: _501  and  _502
REMARK  201  A    between atoms: _501  and  _504
REMARK  202  A    between atoms: _504  and  _505
REMARK  203  A    between atoms: _511  and  _513
REMARK  204  A    between atoms: _513  and  _514
REMARK  205  A    between atoms: _513  and  _516
REMARK  206  A    between atoms: _516  and  _517
REMARK  207  A    between atoms: _523  and  _525
REMARK  208  A    between atoms: _525  and  _526
REMARK  209  A    between atoms: _525  and  _528
REMARK  210  A    between atoms: _528  and  _529
REMARK  211  A    between atoms: _531  and  _533
REMARK  212  A    between atoms: _533  and  _534
REMARK  213  A    between atoms: _533  and  _536
REMARK  214  A    between atoms: _536  and  _537
REMARK  215  A    between atoms: _540  and  _542
REMARK  216  A    between atoms: _542  and  _543
REMARK  217  A    between atoms: _542  and  _545
REMARK  218  A    between atoms: _545  and  _546
REMARK  219  A    between atoms: _556  and  _558
REMARK  220  A    between atoms: _558  and  _559
REMARK  221  A    between atoms: _561  and  _563
REMARK  222  A    between atoms: _563  and  _564
REMARK  223  A    between atoms: _563  and  _566
REMARK  224  A    between atoms: _566  and  _567
REMARK  225  A    between atoms: _577  and  _579
REMARK  226  A    between atoms: _579  and  _580
REMARK  227  A    between atoms: _579  and  _582
REMARK  228  A    between atoms: _582  and  _583
REMARK  229  A    between atoms: _585  and  _587
REMARK  230  A    between atoms: _587  and  _588
REMARK  231  A    between atoms: _587  and  _590
REMARK  232  A    between atoms: _590  and  _591
REMARK  233  A    between atoms: _591  and  _592
REMARK  234  A    between atoms: _597  and  _599
REMARK  235  A    between atoms: _599  and  _600
REMARK  236  A    between atoms: _599  and  _602
REMARK  237  A    between atoms: _602  and  _603
REMARK  238  A    between atoms: _605  and  _607
REMARK  239  A    between atoms: _607  and  _608
REMARK  240  A    between atoms: _607  and  _610
REMARK  241  A    between atoms: _610  and  _611
REMARK  242  A    between atoms: _614  and  _616
REMARK  243  A    between atoms: _616  and  _617
REMARK  244  A    between atoms: _616  and  _619
REMARK  245  A    between atoms: _619  and  _620
REMARK  246  A    between atoms: _620  and  _621
REMARK  247  A    between atoms: _624  and  _626
REMARK  248  A    between atoms: _626  and  _627
REMARK  249  A    between atoms: _626  and  _629
REMARK  250  A    between atoms: _629  and  _630
REMARK  251  A    between atoms: _636  and  _638
REMARK  252  A    between atoms: _638  and  _639
REMARK  253  A    between atoms: _641  and  _643
REMARK  254  A    between atoms: _643  and  _644
REMARK  255  A    between atoms: _643  and  _646
REMARK  256  A    between atoms: _646  and  _647
REMARK  257  A    between atoms: _652  and  _653
REMARK  258  A    between atoms: _655  and  _657
REMARK  259  A    between atoms: _657  and  _658
REMARK  260  A    between atoms: _657  and  _660
REMARK  261  A    between atoms: _660  and  _661
REMARK  262  A    between atoms: _666  and  _667
REMARK  263  A    between atoms: _669  and  _671
REMARK  264  A    between atoms: _671  and  _672
REMARK  265  A    between atoms: _671  and  _674
REMARK  266  A    between atoms: _674  and  _675
REMARK  267  A    between atoms: _675  and  _676
REMARK  268  A    between atoms: _676  and  _677
REMARK                            x       y       z     vdW  Elec       q    Type
REMARK                         _______ _______ _______ _____ _____    ______ ____
ROOT
ATOM      1  O   HOH     1     -18.414  14.446  -7.253  0.00  0.00    +0.000 OA
ENDROOT
TORSDOF 0
REMARK  Name = ../refined-set-2016/3zm9/3zm9_pocket.pdb
REMARK  268 active torsions:
REMARK  status: ('A' for Active; 'I' for Inactive)
REMARK    1  A    between atoms: _1  and  _3
REMARK    2  A    between atoms: _3  and  _4
REMARK    3  A    between atoms: _3  and  _6
REMARK    4  A    between atoms: _6  and  _7
REMARK    5  A    between atoms: _10  and  _12
REMARK    6  A    between atoms: _12  and  _13
REMARK    7  A    between atoms: _12  and  _15
REMARK    8  A    between atoms: _15  and  _16
REMARK    9  A    between atoms: _16  and  _17
REMARK   10  A    between atoms: _17  and  _18
REMARK   11  A    between atoms: _27  and  _29
REMARK   12  A    between atoms: _29  and  _30
REMARK   13  A    between atoms: _29  and  _32
REMARK   14  A    between atoms: _32  and  _33
REMARK   15  A    between atoms: _38  and  _40
REMARK   16  A    between atoms: _40  and  _41
REMARK   17  A    between atoms: _40  and  _43
REMARK   18  A    between atoms: _43  and  _44
REMARK   19  A    between atoms: _47  and  _49
REMARK   20  A    between atoms: _49  and  _50
REMARK   21  A    between atoms: _49  and  _52
REMARK   22  A    between atoms: _52  and  _53
REMARK   23  A    between atoms: _53  and  _54
REMARK   24  A    between atoms: _59  and  _61
REMARK   25  A    between atoms: _61  and  _62
REMARK   26  A    between atoms: _61  and  _64
REMARK   27  A    between atoms: _67  and  _69
REMARK   28  A    between atoms: _69  and  _70
REMARK   29  A    between atoms: _69  and  _72
REMARK   30  A    between atoms: _72  and  _73
REMARK   31  A    between atoms: _76  and  _78
REMARK   32  A    between atoms: _78  and  _79
REMARK   33  A    between atoms: _78  and  _81
REMARK   34  A    between atoms: _81  and  _82
REMARK   35  A    between atoms: _85  and  _87
REMARK   36  A    between atoms: _87  and  _88
REMARK   37  A    between atoms: _87  and  _90
REMARK   38  A    between atoms: _90  and  _91
REMARK   39  A    between atoms: _91  and  _92
REMARK   40  A    between atoms: _92  and  _93
REMARK   41  A    between atoms: _102  and  _104
REMARK   42  A    between atoms: _104  and  _105
REMARK   43  A    between atoms: _104  and  _107
REMARK   44  A    between atoms: _107  and  _108
REMARK   45  A    between atoms: _114  and  _116
REMARK   46  A    between atoms: _116  and  _117
REMARK   47  A    between atoms: _120  and  _121
REMARK   48  A    between atoms: _126  and  _128
REMARK   49  A    between atoms: _128  and  _129
REMARK   50  A    between atoms: _128  and  _131
REMARK   51  A    between atoms: _131  and  _132
REMARK   52  A    between atoms: _132  and  _133
REMARK   53  A    between atoms: _133  and  _134
REMARK   54  A    between atoms: _134  and  _135
REMARK   55  A    between atoms: _139  and  _141
REMARK   56  A    between atoms: _141  and  _142
REMARK   57  A    between atoms: _141  and  _144
REMARK   58  A    between atoms: _144  and  _145
REMARK   59  A    between atoms: _145  and  _146
REMARK   60  A    between atoms: _146  and  _147
REMARK   61  A    between atoms: _156  and  _158
REMARK   62  A    between atoms: _158  and  _159
REMARK   63  A    between atoms: _158  and  _161
REMARK   64  A    between atoms: _161  and  _162
REMARK   65  A    between atoms: _165  and  _167
REMARK   66  A    between atoms: _167  and  _168
REMARK   67  A    between atoms: _167  and  _170
REMARK   68  A    between atoms: _170  and  _171
REMARK   69  A    between atoms: _171  and  _172
REMARK   70  A    between atoms: _175  and  _177
REMARK   71  A    between atoms: _177  and  _178
REMARK   72  A    between atoms: _177  and  _180
REMARK   73  A    between atoms: _180  and  _181
REMARK   74  A    between atoms: _181  and  _182
REMARK   75  A    between atoms: _187  and  _189
REMARK   76  A    between atoms: _189  and  _190
REMARK   77  A    between atoms: _189  and  _192
REMARK   78  A    between atoms: _192  and  _193
REMARK   79  A    between atoms: _199  and  _201
REMARK   80  A    between atoms: _201  and  _202
REMARK   81  A    between atoms: _201  and  _204
REMARK   82  A    between atoms: _204  and  _205
REMARK   83  A    between atoms: _209  and  _210
REMARK   84  A    between atoms: _215  and  _217
REMARK   85  A    between atoms: _217  and  _218
REMARK   86  A    between atoms: _217  and  _220
REMARK   87  A    between atoms: _220  and  _221
REMARK   88  A    between atoms: _223  and  _225
REMARK   89  A    between atoms: _225  and  _226
REMARK   90  A    between atoms: _225  and  _228
REMARK   91  A    between atoms: _228  and  _229
REMARK   92  A    between atoms: _229  and  _230
REMARK   93  A    between atoms: _230  and  _231
REMARK   94  A    between atoms: _240  and  _242
REMARK   95  A    between atoms: _242  and  _243
REMARK   96  A    between atoms: _242  and  _245
REMARK   97  A    between atoms: _245  and  _246
REMARK   98  A    between atoms: _246  and  _247
REMARK   99  A    between atoms: _247  and  _248
REMARK  100  A    between atoms: _257  and  _259
REMARK  101  A    between atoms: _259  and  _260
REMARK  102  A    between atoms: _259  and  _262
REMARK  103  A    between atoms: _262  and  _263
REMARK  104  A    between atoms: _266  and  _268
REMARK  105  A    between atoms: _268  and  _269
REMARK  106  A    between atoms: _268  and  _271
REMARK  107  A    between atoms: _271  and  _272
REMARK  108  A    between atoms: _277  and  _278
REMARK  109  A    between atoms: _280  and  _282
REMARK  110  A    between atoms: _282  and  _283
REMARK  111  A    between atoms: _282  and  _285
REMARK  112  A    between atoms: _285  and  _286
REMARK  113  A    between atoms: _291  and  _293
REMARK  114  A    between atoms: _293  and  _294
REMARK  115  A    between atoms: _293  and  _296
REMARK  116  A    between atoms: _296  and  _297
REMARK  117  A    between atoms: _300  and  _302
REMARK  118  A    between atoms: _302  and  _303
REMARK  119  A    between atoms: _302  and  _305
REMARK  120  A    between atoms: _307  and  _309
REMARK  121  A    between atoms: _309  and  _310
REMARK  122  A    between atoms: _309  and  _312
REMARK  123  A    between atoms: _312  and  _313
REMARK  124  A    between atoms: _313  and  _314
REMARK  125  A    between atoms: _319  and  _321
REMARK  126  A    between atoms: _321  and  _322
REMARK  127  A    between atoms: _321  and  _324
REMARK  128  A    between atoms: _324  and  _325
REMARK  129  A    between atoms: _325  and  _326
REMARK  130  A    between atoms: _329  and  _331
REMARK  131  A    between atoms: _331  and  _332
REMARK  132  A    between atoms: _334  and  _336
REMARK  133  A    between atoms: _336  and  _337
REMARK  134  A    between atoms: _336  and  _339
REMARK  135  A    between atoms: _339  and  _340
REMARK  136  A    between atoms: _345  and  _347
REMARK  137  A    between atoms: _347  and  _348
REMARK  138  A    between atoms: _347  and  _350
REMARK  139  A    between atoms: _350  and  _351
REMARK  140  A    between atoms: _354  and  _356
REMARK  141  A    between atoms: _356  and  _357
REMARK  142  A    between atoms: _356  and  _359
REMARK  143  A    between atoms: _359  and  _360
REMARK  144  A    between atoms: _363  and  _365
REMARK  145  A    between atoms: _365  and  _366
REMARK  146  A    between atoms: _365  and  _368
REMARK  147  A    between atoms: _368  and  _369
REMARK  148  A    between atoms: _369  and  _370
REMARK  149  A    between atoms: _372  and  _374
REMARK  150  A    between atoms: _374  and  _375
REMARK  151  A    between atoms: _374  and  _377
REMARK  152  A    between atoms: _377  and  _378
REMARK  153  A    between atoms: _381  and  _383
REMARK  154  A    between atoms: _383  and  _384
REMARK  155  A    between atoms: _383  and  _386
REMARK  156  A    between atoms: _386  and  _387
REMARK  157  A    between atoms: _390  and  _392
REMARK  158  A    between atoms: _392  and  _393
REMARK  159  A    between atoms: _392  and  _395
REMARK  160  A    between atoms: _395  and  _396
REMARK  161  A    between atoms: _396  and  _397
REMARK  162  A    between atoms: _400  and  _402
REMARK  163  A    between atoms: _402  and  _403
REMARK  164  A    between atoms: _402  and  _405
REMARK  165  A    between atoms: _405  and  _406
REMARK  166  A    between atoms: _411  and  _412
REMARK  167  A    between atoms: _414  and  _416
REMARK  168  A    between atoms: _416  and  _417
REMARK  169  A    between atoms: _416  and  _419
REMARK  170  A    between atoms: _419  and  _420
REMARK  171  A    between atoms: _426  and  _428
REMARK  172  A    between atoms: _428  and  _429
REMARK  173  A    between atoms: _428  and  _431
REMARK  174  A    between atoms: _431  and  _432
REMARK  175  A    between atoms: _437  and  _439
REMARK  176  A    between atoms: _439  and  _440
REMARK  177  A    between atoms: _439  and  _442
REMARK  178  A    between atoms: _442  and  _443
REMARK  179  A    between atoms: _443  and  _444
REMARK  180  A    between atoms: _447  and  _449
REMARK  181  A    between atoms: _449  and  _450
REMARK  182  A    between atoms: _449  and  _452
REMARK  183  A    between atoms: _452  and  _453
REMARK  184  A    between atoms: _458  and  _459
REMARK  185  A    between atoms: _461  and  _463
REMARK  186  A    between atoms: _463  and  _464
REMARK  187  A    between atoms: _463  and  _466
REMARK  188  A    between atoms: _466  and  _467
REMARK  189  A    between atoms: _470  and  _472
REMARK  190  A    between atoms: _472  and  _473
REMARK  191  A    between atoms: _472  and  _475
REMARK  192  A    between atoms: _475  and  _476
REMARK  193  A    between atoms: _481  and  _482
REMARK  194  A    between atoms: _484  and  _486
REMARK  195  A    between atoms: _486  and  _487
REMARK  196  A    between atoms: _486  and  _489
REMARK  197  A    between atoms: _489  and  _490
REMARK  198  A    between atoms: _493  and  _494
REMARK  199  A    between atoms: _499  and  _501
REMARK  200  A    between atoms: _501  and  _502
REMARK  201  A    between atoms: _501  and  _504
REMARK  202  A    between atoms: _504  and  _505
REMARK  203  A    between atoms: _511  and  _513
REMARK  204  A    between atoms: _513  and  _514
REMARK  205  A    between atoms: _513  and  _516
REMARK  206  A    between atoms: _516  and  _517
REMARK  207  A    between atoms: _523  and  _525
REMARK  208  A    between atoms: _525  and  _526
REMARK  209  A    between atoms: _525  and  _528
REMARK  210  A    between atoms: _528  and  _529
REMARK  211  A    between atoms: _531  and  _533
REMARK  212  A    between atoms: _533  and  _534
REMARK  213  A    between atoms: _533  and  _536
REMARK  214  A    between atoms: _536  and  _537
REMARK  215  A    between atoms: _540  and  _542
REMARK  216  A    between atoms: _542  and  _543
REMARK  217  A    between atoms: _542  and  _545
REMARK  218  A    between atoms: _545  and  _546
REMARK  219  A    between atoms: _556  and  _558
REMARK  220  A    between atoms: _558  and  _559
REMARK  221  A    between atoms: _561  and  _563
REMARK  222  A    between atoms: _563  and  _564
REMARK  223  A    between atoms: _563  and  _566
REMARK  224  A    between atoms: _566  and  _567
REMARK  225  A    between atoms: _577  and  _579
REMARK  226  A    between atoms: _579  and  _580
REMARK  227  A    between atoms: _579  and  _582
REMARK  228  A    between atoms: _582  and  _583
REMARK  229  A    between atoms: _585  and  _587
REMARK  230  A    between atoms: _587  and  _588
REMARK  231  A    between atoms: _587  and  _590
REMARK  232  A    between atoms: _590  and  _591
REMARK  233  A    between atoms: _591  and  _592
REMARK  234  A    between atoms: _597  and  _599
REMARK  235  A    between atoms: _599  and  _600
REMARK  236  A    between atoms: _599  and  _602
REMARK  237  A    between atoms: _602  and  _603
REMARK  238  A    between atoms: _605  and  _607
REMARK  239  A    between atoms: _607  and  _608
REMARK  240  A    between atoms: _607  and  _610
REMARK  241  A    between atoms: _610  and  _611
REMARK  242  A    between atoms: _614  and  _616
REMARK  243  A    between atoms: _616  and  _617
REMARK  244  A    between atoms: _616  and  _619
REMARK  245  A    between atoms: _619  and  _620
REMARK  246  A    between atoms: _620  and  _621
REMARK  247  A    between atoms: _624  and  _626
REMARK  248  A    between atoms: _626  and  _627
REMARK  249  A    between atoms: _626  and  _629
REMARK  250  A    between atoms: _629  and  _630
REMARK  251  A    between atoms: _636  and  _638
REMARK  252  A    between atoms: _638  and  _639
REMARK  253  A    between atoms: _641  and  _643
REMARK  254  A    between atoms: _643  and  _644
REMARK  255  A    between atoms: _643  and  _646
REMARK  256  A    between atoms: _646  and  _647
REMARK  257  A    between atoms: _652  and  _653
REMARK  258  A    between atoms: _655  and  _657
REMARK  259  A    between atoms: _657  and  _658
REMARK  260  A    between atoms: _657  and  _660
REMARK  261  A    between atoms: _660  and  _661
REMARK  262  A    between atoms: _666  and  _667
REMARK  263  A    between atoms: _669  and  _671
REMARK  264  A    between atoms: _671  and  _672
REMARK  265  A    between atoms: _671  and  _674
REMARK  266  A    between atoms: _674  and  _675
REMARK  267  A    between atoms: _675  and  _676
REMARK  268  A    between atoms: _676  and  _677
REMARK                            x       y       z     vdW  Elec       q    Type
REMARK                         _______ _______ _______ _____ _____    ______ ____
ROOT
ATOM      1  O   HOH     1     -24.968  -2.309 -19.126  0.00  0.00    +0.000 OA
ENDROOT
TORSDOF 0
REMARK  Name = ../refined-set-2016/3zm9/3zm9_pocket.pdb
REMARK  268 active torsions:
REMARK  status: ('A' for Active; 'I' for Inactive)
REMARK    1  A    between atoms: _1  and  _3
REMARK    2  A    between atoms: _3  and  _4
REMARK    3  A    between atoms: _3  and  _6
REMARK    4  A    between atoms: _6  and  _7
REMARK    5  A    between atoms: _10  and  _12
REMARK    6  A    between atoms: _12  and  _13
REMARK    7  A    between atoms: _12  and  _15
REMARK    8  A    between atoms: _15  and  _16
REMARK    9  A    between atoms: _16  and  _17
REMARK   10  A    between atoms: _17  and  _18
REMARK   11  A    between atoms: _27  and  _29
REMARK   12  A    between atoms: _29  and  _30
REMARK   13  A    between atoms: _29  and  _32
REMARK   14  A    between atoms: _32  and  _33
REMARK   15  A    between atoms: _38  and  _40
REMARK   16  A    between atoms: _40  and  _41
REMARK   17  A    between atoms: _40  and  _43
REMARK   18  A    between atoms: _43  and  _44
REMARK   19  A    between atoms: _47  and  _49
REMARK   20  A    between atoms: _49  and  _50
REMARK   21  A    between atoms: _49  and  _52
REMARK   22  A    between atoms: _52  and  _53
REMARK   23  A    between atoms: _53  and  _54
REMARK   24  A    between atoms: _59  and  _61
REMARK   25  A    between atoms: _61  and  _62
REMARK   26  A    between atoms: _61  and  _64
REMARK   27  A    between atoms: _67  and  _69
REMARK   28  A    between atoms: _69  and  _70
REMARK   29  A    between atoms: _69  and  _72
REMARK   30  A    between atoms: _72  and  _73
REMARK   31  A    between atoms: _76  and  _78
REMARK   32  A    between atoms: _78  and  _79
REMARK   33  A    between atoms: _78  and  _81
REMARK   34  A    between atoms: _81  and  _82
REMARK   35  A    between atoms: _85  and  _87
REMARK   36  A    between atoms: _87  and  _88
REMARK   37  A    between atoms: _87  and  _90
REMARK   38  A    between atoms: _90  and  _91
REMARK   39  A    between atoms: _91  and  _92
REMARK   40  A    between atoms: _92  and  _93
REMARK   41  A    between atoms: _102  and  _104
REMARK   42  A    between atoms: _104  and  _105
REMARK   43  A    between atoms: _104  and  _107
REMARK   44  A    between atoms: _107  and  _108
REMARK   45  A    between atoms: _114  and  _116
REMARK   46  A    between atoms: _116  and  _117
REMARK   47  A    between atoms: _120  and  _121
REMARK   48  A    between atoms: _126  and  _128
REMARK   49  A    between atoms: _128  and  _129
REMARK   50  A    between atoms: _128  and  _131
REMARK   51  A    between atoms: _131  and  _132
REMARK   52  A    between atoms: _132  and  _133
REMARK   53  A    between atoms: _133  and  _134
REMARK   54  A    between atoms: _134  and  _135
REMARK   55  A    between atoms: _139  and  _141
REMARK   56  A    between atoms: _141  and  _142
REMARK   57  A    between atoms: _141  and  _144
REMARK   58  A    between atoms: _144  and  _145
REMARK   59  A    between atoms: _145  and  _146
REMARK   60  A    between atoms: _146  and  _147
REMARK   61  A    between atoms: _156  and  _158
REMARK   62  A    between atoms: _158  and  _159
REMARK   63  A    between atoms: _158  and  _161
REMARK   64  A    between atoms: _161  and  _162
REMARK   65  A    between atoms: _165  and  _167
REMARK   66  A    between atoms: _167  and  _168
REMARK   67  A    between atoms: _167  and  _170
REMARK   68  A    between atoms: _170  and  _171
REMARK   69  A    between atoms: _171  and  _172
REMARK   70  A    between atoms: _175  and  _177
REMARK   71  A    between atoms: _177  and  _178
REMARK   72  A    between atoms: _177  and  _180
REMARK   73  A    between atoms: _180  and  _181
REMARK   74  A    between atoms: _181  and  _182
REMARK   75  A    between atoms: _187  and  _189
REMARK   76  A    between atoms: _189  and  _190
REMARK   77  A    between atoms: _189  and  _192
REMARK   78  A    between atoms: _192  and  _193
REMARK   79  A    between atoms: _199  and  _201
REMARK   80  A    between atoms: _201  and  _202
REMARK   81  A    between atoms: _201  and  _204
REMARK   82  A    between atoms: _204  and  _205
REMARK   83  A    between atoms: _209  and  _210
REMARK   84  A    between atoms: _215  and  _217
REMARK   85  A    between atoms: _217  and  _218
REMARK   86  A    between atoms: _217  and  _220
REMARK   87  A    between atoms: _220  and  _221
REMARK   88  A    between atoms: _223  and  _225
REMARK   89  A    between atoms: _225  and  _226
REMARK   90  A    between atoms: _225  and  _228
REMARK   91  A    between atoms: _228  and  _229
REMARK   92  A    between atoms: _229  and  _230
REMARK   93  A    between atoms: _230  and  _231
REMARK   94  A    between atoms: _240  and  _242
REMARK   95  A    between atoms: _242  and  _243
REMARK   96  A    between atoms: _242  and  _245
REMARK   97  A    between atoms: _245  and  _246
REMARK   98  A    between atoms: _246  and  _247
REMARK   99  A    between atoms: _247  and  _248
REMARK  100  A    between atoms: _257  and  _259
REMARK  101  A    between atoms: _259  and  _260
REMARK  102  A    between atoms: _259  and  _262
REMARK  103  A    between atoms: _262  and  _263
REMARK  104  A    between atoms: _266  and  _268
REMARK  105  A    between atoms: _268  and  _269
REMARK  106  A    between atoms: _268  and  _271
REMARK  107  A    between atoms: _271  and  _272
REMARK  108  A    between atoms: _277  and  _278
REMARK  109  A    between atoms: _280  and  _282
REMARK  110  A    between atoms: _282  and  _283
REMARK  111  A    between atoms: _282  and  _285
REMARK  112  A    between atoms: _285  and  _286
REMARK  113  A    between atoms: _291  and  _293
REMARK  114  A    between atoms: _293  and  _294
REMARK  115  A    between atoms: _293  and  _296
REMARK  116  A    between atoms: _296  and  _297
REMARK  117  A    between atoms: _300  and  _302
REMARK  118  A    between atoms: _302  and  _303
REMARK  119  A    between atoms: _302  and  _305
REMARK  120  A    between atoms: _307  and  _309
REMARK  121  A    between atoms: _309  and  _310
REMARK  122  A    between atoms: _309  and  _312
REMARK  123  A    between atoms: _312  and  _313
REMARK  124  A    between atoms: _313  and  _314
REMARK  125  A    between atoms: _319  and  _321
REMARK  126  A    between atoms: _321  and  _322
REMARK  127  A    between atoms: _321  and  _324
REMARK  128  A    between atoms: _324  and  _325
REMARK  129  A    between atoms: _325  and  _326
REMARK  130  A    between atoms: _329  and  _331
REMARK  131  A    between atoms: _331  and  _332
REMARK  132  A    between atoms: _334  and  _336
REMARK  133  A    between atoms: _336  and  _337
REMARK  134  A    between atoms: _336  and  _339
REMARK  135  A    between atoms: _339  and  _340
REMARK  136  A    between atoms: _345  and  _347
REMARK  137  A    between atoms: _347  and  _348
REMARK  138  A    between atoms: _347  and  _350
REMARK  139  A    between atoms: _350  and  _351
REMARK  140  A    between atoms: _354  and  _356
REMARK  141  A    between atoms: _356  and  _357
REMARK  142  A    between atoms: _356  and  _359
REMARK  143  A    between atoms: _359  and  _360
REMARK  144  A    between atoms: _363  and  _365
REMARK  145  A    between atoms: _365  and  _366
REMARK  146  A    between atoms: _365  and  _368
REMARK  147  A    between atoms: _368  and  _369
REMARK  148  A    between atoms: _369  and  _370
REMARK  149  A    between atoms: _372  and  _374
REMARK  150  A    between atoms: _374  and  _375
REMARK  151  A    between atoms: _374  and  _377
REMARK  152  A    between atoms: _377  and  _378
REMARK  153  A    between atoms: _381  and  _383
REMARK  154  A    between atoms: _383  and  _384
REMARK  155  A    between atoms: _383  and  _386
REMARK  156  A    between atoms: _386  and  _387
REMARK  157  A    between atoms: _390  and  _392
REMARK  158  A    between atoms: _392  and  _393
REMARK  159  A    between atoms: _392  and  _395
REMARK  160  A    between atoms: _395  and  _396
REMARK  161  A    between atoms: _396  and  _397
REMARK  162  A    between atoms: _400  and  _402
REMARK  163  A    between atoms: _402  and  _403
REMARK  164  A    between atoms: _402  and  _405
REMARK  165  A    between atoms: _405  and  _406
REMARK  166  A    between atoms: _411  and  _412
REMARK  167  A    between atoms: _414  and  _416
REMARK  168  A    between atoms: _416  and  _417
REMARK  169  A    between atoms: _416  and  _419
REMARK  170  A    between atoms: _419  and  _420
REMARK  171  A    between atoms: _426  and  _428
REMARK  172  A    between atoms: _428  and  _429
REMARK  173  A    between atoms: _428  and  _431
REMARK  174  A    between atoms: _431  and  _432
REMARK  175  A    between atoms: _437  and  _439
REMARK  176  A    between atoms: _439  and  _440
REMARK  177  A    between atoms: _439  and  _442
REMARK  178  A    between atoms: _442  and  _443
REMARK  179  A    between atoms: _443  and  _444
REMARK  180  A    between atoms: _447  and  _449
REMARK  181  A    between atoms: _449  and  _450
REMARK  182  A    between atoms: _449  and  _452
REMARK  183  A    between atoms: _452  and  _453
REMARK  184  A    between atoms: _458  and  _459
REMARK  185  A    between atoms: _461  and  _463
REMARK  186  A    between atoms: _463  and  _464
REMARK  187  A    between atoms: _463  and  _466
REMARK  188  A    between atoms: _466  and  _467
REMARK  189  A    between atoms: _470  and  _472
REMARK  190  A    between atoms: _472  and  _473
REMARK  191  A    between atoms: _472  and  _475
REMARK  192  A    between atoms: _475  and  _476
REMARK  193  A    between atoms: _481  and  _482
REMARK  194  A    between atoms: _484  and  _486
REMARK  195  A    between atoms: _486  and  _487
REMARK  196  A    between atoms: _486  and  _489
REMARK  197  A    between atoms: _489  and  _490
REMARK  198  A    between atoms: _493  and  _494
REMARK  199  A    between atoms: _499  and  _501
REMARK  200  A    between atoms: _501  and  _502
REMARK  201  A    between atoms: _501  and  _504
REMARK  202  A    between atoms: _504  and  _505
REMARK  203  A    between atoms: _511  and  _513
REMARK  204  A    between atoms: _513  and  _514
REMARK  205  A    between atoms: _513  and  _516
REMARK  206  A    between atoms: _516  and  _517
REMARK  207  A    between atoms: _523  and  _525
REMARK  208  A    between atoms: _525  and  _526
REMARK  209  A    between atoms: _525  and  _528
REMARK  210  A    between atoms: _528  and  _529
REMARK  211  A    between atoms: _531  and  _533
REMARK  212  A    between atoms: _533  and  _534
REMARK  213  A    between atoms: _533  and  _536
REMARK  214  A    between atoms: _536  and  _537
REMARK  215  A    between atoms: _540  and  _542
REMARK  216  A    between atoms: _542  and  _543
REMARK  217  A    between atoms: _542  and  _545
REMARK  218  A    between atoms: _545  and  _546
REMARK  219  A    between atoms: _556  and  _558
REMARK  220  A    between atoms: _558  and  _559
REMARK  221  A    between atoms: _561  and  _563
REMARK  222  A    between atoms: _563  and  _564
REMARK  223  A    between atoms: _563  and  _566
REMARK  224  A    between atoms: _566  and  _567
REMARK  225  A    between atoms: _577  and  _579
REMARK  226  A    between atoms: _579  and  _580
REMARK  227  A    between atoms: _579  and  _582
REMARK  228  A    between atoms: _582  and  _583
REMARK  229  A    between atoms: _585  and  _587
REMARK  230  A    between atoms: _587  and  _588
REMARK  231  A    between atoms: _587  and  _590
REMARK  232  A    between atoms: _590  and  _591
REMARK  233  A    between atoms: _591  and  _592
REMARK  234  A    between atoms: _597  and  _599
REMARK  235  A    between atoms: _599  and  _600
REMARK  236  A    between atoms: _599  and  _602
REMARK  237  A    between atoms: _602  and  _603
REMARK  238  A    between atoms: _605  and  _607
REMARK  239  A    between atoms: _607  and  _608
REMARK  240  A    between atoms: _607  and  _610
REMARK  241  A    between atoms: _610  and  _611
REMARK  242  A    between atoms: _614  and  _616
REMARK  243  A    between atoms: _616  and  _617
REMARK  244  A    between atoms: _616  and  _619
REMARK  245  A    between atoms: _619  and  _620
REMARK  246  A    between atoms: _620  and  _621
REMARK  247  A    between atoms: _624  and  _626
REMARK  248  A    between atoms: _626  and  _627
REMARK  249  A    between atoms: _626  and  _629
REMARK  250  A    between atoms: _629  and  _630
REMARK  251  A    between atoms: _636  and  _638
REMARK  252  A    between atoms: _638  and  _639
REMARK  253  A    between atoms: _641  and  _643
REMARK  254  A    between atoms: _643  and  _644
REMARK  255  A    between atoms: _643  and  _646
REMARK  256  A    between atoms: _646  and  _647
REMARK  257  A    between atoms: _652  and  _653
REMARK  258  A    between atoms: _655  and  _657
REMARK  259  A    between atoms: _657  and  _658
REMARK  260  A    between atoms: _657  and  _660
REMARK  261  A    between atoms: _660  and  _661
REMARK  262  A    between atoms: _666  and  _667
REMARK  263  A    between atoms: _669  and  _671
REMARK  264  A    between atoms: _671  and  _672
REMARK  265  A    between atoms: _671  and  _674
REMARK  266  A    between atoms: _674  and  _675
REMARK  267  A    between atoms: _675  and  _676
REMARK  268  A    between atoms: _676  and  _677
REMARK                            x       y       z     vdW  Elec       q    Type
REMARK                         _______ _______ _______ _____ _____    ______ ____
ROOT
ATOM      1  O   HOH     1     -25.454   0.056 -21.809  0.00  0.00    +0.000 OA
ENDROOT
TORSDOF 0
REMARK  Name = ../refined-set-2016/3zm9/3zm9_pocket.pdb
REMARK  268 active torsions:
REMARK  status: ('A' for Active; 'I' for Inactive)
REMARK    1  A    between atoms: _1  and  _3
REMARK    2  A    between atoms: _3  and  _4
REMARK    3  A    between atoms: _3  and  _6
REMARK    4  A    between atoms: _6  and  _7
REMARK    5  A    between atoms: _10  and  _12
REMARK    6  A    between atoms: _12  and  _13
REMARK    7  A    between atoms: _12  and  _15
REMARK    8  A    between atoms: _15  and  _16
REMARK    9  A    between atoms: _16  and  _17
REMARK   10  A    between atoms: _17  and  _18
REMARK   11  A    between atoms: _27  and  _29
REMARK   12  A    between atoms: _29  and  _30
REMARK   13  A    between atoms: _29  and  _32
REMARK   14  A    between atoms: _32  and  _33
REMARK   15  A    between atoms: _38  and  _40
REMARK   16  A    between atoms: _40  and  _41
REMARK   17  A    between atoms: _40  and  _43
REMARK   18  A    between atoms: _43  and  _44
REMARK   19  A    between atoms: _47  and  _49
REMARK   20  A    between atoms: _49  and  _50
REMARK   21  A    between atoms: _49  and  _52
REMARK   22  A    between atoms: _52  and  _53
REMARK   23  A    between atoms: _53  and  _54
REMARK   24  A    between atoms: _59  and  _61
REMARK   25  A    between atoms: _61  and  _62
REMARK   26  A    between atoms: _61  and  _64
REMARK   27  A    between atoms: _67  and  _69
REMARK   28  A    between atoms: _69  and  _70
REMARK   29  A    between atoms: _69  and  _72
REMARK   30  A    between atoms: _72  and  _73
REMARK   31  A    between atoms: _76  and  _78
REMARK   32  A    between atoms: _78  and  _79
REMARK   33  A    between atoms: _78  and  _81
REMARK   34  A    between atoms: _81  and  _82
REMARK   35  A    between atoms: _85  and  _87
REMARK   36  A    between atoms: _87  and  _88
REMARK   37  A    between atoms: _87  and  _90
REMARK   38  A    between atoms: _90  and  _91
REMARK   39  A    between atoms: _91  and  _92
REMARK   40  A    between atoms: _92  and  _93
REMARK   41  A    between atoms: _102  and  _104
REMARK   42  A    between atoms: _104  and  _105
REMARK   43  A    between atoms: _104  and  _107
REMARK   44  A    between atoms: _107  and  _108
REMARK   45  A    between atoms: _114  and  _116
REMARK   46  A    between atoms: _116  and  _117
REMARK   47  A    between atoms: _120  and  _121
REMARK   48  A    between atoms: _126  and  _128
REMARK   49  A    between atoms: _128  and  _129
REMARK   50  A    between atoms: _128  and  _131
REMARK   51  A    between atoms: _131  and  _132
REMARK   52  A    between atoms: _132  and  _133
REMARK   53  A    between atoms: _133  and  _134
REMARK   54  A    between atoms: _134  and  _135
REMARK   55  A    between atoms: _139  and  _141
REMARK   56  A    between atoms: _141  and  _142
REMARK   57  A    between atoms: _141  and  _144
REMARK   58  A    between atoms: _144  and  _145
REMARK   59  A    between atoms: _145  and  _146
REMARK   60  A    between atoms: _146  and  _147
REMARK   61  A    between atoms: _156  and  _158
REMARK   62  A    between atoms: _158  and  _159
REMARK   63  A    between atoms: _158  and  _161
REMARK   64  A    between atoms: _161  and  _162
REMARK   65  A    between atoms: _165  and  _167
REMARK   66  A    between atoms: _167  and  _168
REMARK   67  A    between atoms: _167  and  _170
REMARK   68  A    between atoms: _170  and  _171
REMARK   69  A    between atoms: _171  and  _172
REMARK   70  A    between atoms: _175  and  _177
REMARK   71  A    between atoms: _177  and  _178
REMARK   72  A    between atoms: _177  and  _180
REMARK   73  A    between atoms: _180  and  _181
REMARK   74  A    between atoms: _181  and  _182
REMARK   75  A    between atoms: _187  and  _189
REMARK   76  A    between atoms: _189  and  _190
REMARK   77  A    between atoms: _189  and  _192
REMARK   78  A    between atoms: _192  and  _193
REMARK   79  A    between atoms: _199  and  _201
REMARK   80  A    between atoms: _201  and  _202
REMARK   81  A    between atoms: _201  and  _204
REMARK   82  A    between atoms: _204  and  _205
REMARK   83  A    between atoms: _209  and  _210
REMARK   84  A    between atoms: _215  and  _217
REMARK   85  A    between atoms: _217  and  _218
REMARK   86  A    between atoms: _217  and  _220
REMARK   87  A    between atoms: _220  and  _221
REMARK   88  A    between atoms: _223  and  _225
REMARK   89  A    between atoms: _225  and  _226
REMARK   90  A    between atoms: _225  and  _228
REMARK   91  A    between atoms: _228  and  _229
REMARK   92  A    between atoms: _229  and  _230
REMARK   93  A    between atoms: _230  and  _231
REMARK   94  A    between atoms: _240  and  _242
REMARK   95  A    between atoms: _242  and  _243
REMARK   96  A    between atoms: _242  and  _245
REMARK   97  A    between atoms: _245  and  _246
REMARK   98  A    between atoms: _246  and  _247
REMARK   99  A    between atoms: _247  and  _248
REMARK  100  A    between atoms: _257  and  _259
REMARK  101  A    between atoms: _259  and  _260
REMARK  102  A    between atoms: _259  and  _262
REMARK  103  A    between atoms: _262  and  _263
REMARK  104  A    between atoms: _266  and  _268
REMARK  105  A    between atoms: _268  and  _269
REMARK  106  A    between atoms: _268  and  _271
REMARK  107  A    between atoms: _271  and  _272
REMARK  108  A    between atoms: _277  and  _278
REMARK  109  A    between atoms: _280  and  _282
REMARK  110  A    between atoms: _282  and  _283
REMARK  111  A    between atoms: _282  and  _285
REMARK  112  A    between atoms: _285  and  _286
REMARK  113  A    between atoms: _291  and  _293
REMARK  114  A    between atoms: _293  and  _294
REMARK  115  A    between atoms: _293  and  _296
REMARK  116  A    between atoms: _296  and  _297
REMARK  117  A    between atoms: _300  and  _302
REMARK  118  A    between atoms: _302  and  _303
REMARK  119  A    between atoms: _302  and  _305
REMARK  120  A    between atoms: _307  and  _309
REMARK  121  A    between atoms: _309  and  _310
REMARK  122  A    between atoms: _309  and  _312
REMARK  123  A    between atoms: _312  and  _313
REMARK  124  A    between atoms: _313  and  _314
REMARK  125  A    between atoms: _319  and  _321
REMARK  126  A    between atoms: _321  and  _322
REMARK  127  A    between atoms: _321  and  _324
REMARK  128  A    between atoms: _324  and  _325
REMARK  129  A    between atoms: _325  and  _326
REMARK  130  A    between atoms: _329  and  _331
REMARK  131  A    between atoms: _331  and  _332
REMARK  132  A    between atoms: _334  and  _336
REMARK  133  A    between atoms: _336  and  _337
REMARK  134  A    between atoms: _336  and  _339
REMARK  135  A    between atoms: _339  and  _340
REMARK  136  A    between atoms: _345  and  _347
REMARK  137  A    between atoms: _347  and  _348
REMARK  138  A    between atoms: _347  and  _350
REMARK  139  A    between atoms: _350  and  _351
REMARK  140  A    between atoms: _354  and  _356
REMARK  141  A    between atoms: _356  and  _357
REMARK  142  A    between atoms: _356  and  _359
REMARK  143  A    between atoms: _359  and  _360
REMARK  144  A    between atoms: _363  and  _365
REMARK  145  A    between atoms: _365  and  _366
REMARK  146  A    between atoms: _365  and  _368
REMARK  147  A    between atoms: _368  and  _369
REMARK  148  A    between atoms: _369  and  _370
REMARK  149  A    between atoms: _372  and  _374
REMARK  150  A    between atoms: _374  and  _375
REMARK  151  A    between atoms: _374  and  _377
REMARK  152  A    between atoms: _377  and  _378
REMARK  153  A    between atoms: _381  and  _383
REMARK  154  A    between atoms: _383  and  _384
REMARK  155  A    between atoms: _383  and  _386
REMARK  156  A    between atoms: _386  and  _387
REMARK  157  A    between atoms: _390  and  _392
REMARK  158  A    between atoms: _392  and  _393
REMARK  159  A    between atoms: _392  and  _395
REMARK  160  A    between atoms: _395  and  _396
REMARK  161  A    between atoms: _396  and  _397
REMARK  162  A    between atoms: _400  and  _402
REMARK  163  A    between atoms: _402  and  _403
REMARK  164  A    between atoms: _402  and  _405
REMARK  165  A    between atoms: _405  and  _406
REMARK  166  A    between atoms: _411  and  _412
REMARK  167  A    between atoms: _414  and  _416
REMARK  168  A    between atoms: _416  and  _417
REMARK  169  A    between atoms: _416  and  _419
REMARK  170  A    between atoms: _419  and  _420
REMARK  171  A    between atoms: _426  and  _428
REMARK  172  A    between atoms: _428  and  _429
REMARK  173  A    between atoms: _428  and  _431
REMARK  174  A    between atoms: _431  and  _432
REMARK  175  A    between atoms: _437  and  _439
REMARK  176  A    between atoms: _439  and  _440
REMARK  177  A    between atoms: _439  and  _442
REMARK  178  A    between atoms: _442  and  _443
REMARK  179  A    between atoms: _443  and  _444
REMARK  180  A    between atoms: _447  and  _449
REMARK  181  A    between atoms: _449  and  _450
REMARK  182  A    between atoms: _449  and  _452
REMARK  183  A    between atoms: _452  and  _453
REMARK  184  A    between atoms: _458  and  _459
REMARK  185  A    between atoms: _461  and  _463
REMARK  186  A    between atoms: _463  and  _464
REMARK  187  A    between atoms: _463  and  _466
REMARK  188  A    between atoms: _466  and  _467
REMARK  189  A    between atoms: _470  and  _472
REMARK  190  A    between atoms: _472  and  _473
REMARK  191  A    between atoms: _472  and  _475
REMARK  192  A    between atoms: _475  and  _476
REMARK  193  A    between atoms: _481  and  _482
REMARK  194  A    between atoms: _484  and  _486
REMARK  195  A    between atoms: _486  and  _487
REMARK  196  A    between atoms: _486  and  _489
REMARK  197  A    between atoms: _489  and  _490
REMARK  198  A    between atoms: _493  and  _494
REMARK  199  A    between atoms: _499  and  _501
REMARK  200  A    between atoms: _501  and  _502
REMARK  201  A    between atoms: _501  and  _504
REMARK  202  A    between atoms: _504  and  _505
REMARK  203  A    between atoms: _511  and  _513
REMARK  204  A    between atoms: _513  and  _514
REMARK  205  A    between atoms: _513  and  _516
REMARK  206  A    between atoms: _516  and  _517
REMARK  207  A    between atoms: _523  and  _525
REMARK  208  A    between atoms: _525  and  _526
REMARK  209  A    between atoms: _525  and  _528
REMARK  210  A    between atoms: _528  and  _529
REMARK  211  A    between atoms: _531  and  _533
REMARK  212  A    between atoms: _533  and  _534
REMARK  213  A    between atoms: _533  and  _536
REMARK  214  A    between atoms: _536  and  _537
REMARK  215  A    between atoms: _540  and  _542
REMARK  216  A    between atoms: _542  and  _543
REMARK  217  A    between atoms: _542  and  _545
REMARK  218  A    between atoms: _545  and  _546
REMARK  219  A    between atoms: _556  and  _558
REMARK  220  A    between atoms: _558  and  _559
REMARK  221  A    between atoms: _561  and  _563
REMARK  222  A    between atoms: _563  and  _564
REMARK  223  A    between atoms: _563  and  _566
REMARK  224  A    between atoms: _566  and  _567
REMARK  225  A    between atoms: _577  and  _579
REMARK  226  A    between atoms: _579  and  _580
REMARK  227  A    between atoms: _579  and  _582
REMARK  228  A    between atoms: _582  and  _583
REMARK  229  A    between atoms: _585  and  _587
REMARK  230  A    between atoms: _587  and  _588
REMARK  231  A    between atoms: _587  and  _590
REMARK  232  A    between atoms: _590  and  _591
REMARK  233  A    between atoms: _591  and  _592
REMARK  234  A    between atoms: _597  and  _599
REMARK  235  A    between atoms: _599  and  _600
REMARK  236  A    between atoms: _599  and  _602
REMARK  237  A    between atoms: _602  and  _603
REMARK  238  A    between atoms: _605  and  _607
REMARK  239  A    between atoms: _607  and  _608
REMARK  240  A    between atoms: _607  and  _610
REMARK  241  A    between atoms: _610  and  _611
REMARK  242  A    between atoms: _614  and  _616
REMARK  243  A    between atoms: _616  and  _617
REMARK  244  A    between atoms: _616  and  _619
REMARK  245  A    between atoms: _619  and  _620
REMARK  246  A    between atoms: _620  and  _621
REMARK  247  A    between atoms: _624  and  _626
REMARK  248  A    between atoms: _626  and  _627
REMARK  249  A    between atoms: _626  and  _629
REMARK  250  A    between atoms: _629  and  _630
REMARK  251  A    between atoms: _636  and  _638
REMARK  252  A    between atoms: _638  and  _639
REMARK  253  A    between atoms: _641  and  _643
REMARK  254  A    between atoms: _643  and  _644
REMARK  255  A    between atoms: _643  and  _646
REMARK  256  A    between atoms: _646  and  _647
REMARK  257  A    between atoms: _652  and  _653
REMARK  258  A    between atoms: _655  and  _657
REMARK  259  A    between atoms: _657  and  _658
REMARK  260  A    between atoms: _657  and  _660
REMARK  261  A    between atoms: _660  and  _661
REMARK  262  A    between atoms: _666  and  _667
REMARK  263  A    between atoms: _669  and  _671
REMARK  264  A    between atoms: _671  and  _672
REMARK  265  A    between atoms: _671  and  _674
REMARK  266  A    between atoms: _674  and  _675
REMARK  267  A    between atoms: _675  and  _676
REMARK  268  A    between atoms: _676  and  _677
REMARK                            x       y       z     vdW  Elec       q    Type
REMARK                         _______ _______ _______ _____ _____    ______ ____
ROOT
ATOM      1  O   HOH     1      -9.700   8.042 -10.127  0.00  0.00    +0.000 OA
ENDROOT
TORSDOF 0
REMARK  Name = ../refined-set-2016/3zm9/3zm9_pocket.pdb
REMARK  268 active torsions:
REMARK  status: ('A' for Active; 'I' for Inactive)
REMARK    1  A    between atoms: _1  and  _3
REMARK    2  A    between atoms: _3  and  _4
REMARK    3  A    between atoms: _3  and  _6
REMARK    4  A    between atoms: _6  and  _7
REMARK    5  A    between atoms: _10  and  _12
REMARK    6  A    between atoms: _12  and  _13
REMARK    7  A    between atoms: _12  and  _15
REMARK    8  A    between atoms: _15  and  _16
REMARK    9  A    between atoms: _16  and  _17
REMARK   10  A    between atoms: _17  and  _18
REMARK   11  A    between atoms: _27  and  _29
REMARK   12  A    between atoms: _29  and  _30
REMARK   13  A    between atoms: _29  and  _32
REMARK   14  A    between atoms: _32  and  _33
REMARK   15  A    between atoms: _38  and  _40
REMARK   16  A    between atoms: _40  and  _41
REMARK   17  A    between atoms: _40  and  _43
REMARK   18  A    between atoms: _43  and  _44
REMARK   19  A    between atoms: _47  and  _49
REMARK   20  A    between atoms: _49  and  _50
REMARK   21  A    between atoms: _49  and  _52
REMARK   22  A    between atoms: _52  and  _53
REMARK   23  A    between atoms: _53  and  _54
REMARK   24  A    between atoms: _59  and  _61
REMARK   25  A    between atoms: _61  and  _62
REMARK   26  A    between atoms: _61  and  _64
REMARK   27  A    between atoms: _67  and  _69
REMARK   28  A    between atoms: _69  and  _70
REMARK   29  A    between atoms: _69  and  _72
REMARK   30  A    between atoms: _72  and  _73
REMARK   31  A    between atoms: _76  and  _78
REMARK   32  A    between atoms: _78  and  _79
REMARK   33  A    between atoms: _78  and  _81
REMARK   34  A    between atoms: _81  and  _82
REMARK   35  A    between atoms: _85  and  _87
REMARK   36  A    between atoms: _87  and  _88
REMARK   37  A    between atoms: _87  and  _90
REMARK   38  A    between atoms: _90  and  _91
REMARK   39  A    between atoms: _91  and  _92
REMARK   40  A    between atoms: _92  and  _93
REMARK   41  A    between atoms: _102  and  _104
REMARK   42  A    between atoms: _104  and  _105
REMARK   43  A    between atoms: _104  and  _107
REMARK   44  A    between atoms: _107  and  _108
REMARK   45  A    between atoms: _114  and  _116
REMARK   46  A    between atoms: _116  and  _117
REMARK   47  A    between atoms: _120  and  _121
REMARK   48  A    between atoms: _126  and  _128
REMARK   49  A    between atoms: _128  and  _129
REMARK   50  A    between atoms: _128  and  _131
REMARK   51  A    between atoms: _131  and  _132
REMARK   52  A    between atoms: _132  and  _133
REMARK   53  A    between atoms: _133  and  _134
REMARK   54  A    between atoms: _134  and  _135
REMARK   55  A    between atoms: _139  and  _141
REMARK   56  A    between atoms: _141  and  _142
REMARK   57  A    between atoms: _141  and  _144
REMARK   58  A    between atoms: _144  and  _145
REMARK   59  A    between atoms: _145  and  _146
REMARK   60  A    between atoms: _146  and  _147
REMARK   61  A    between atoms: _156  and  _158
REMARK   62  A    between atoms: _158  and  _159
REMARK   63  A    between atoms: _158  and  _161
REMARK   64  A    between atoms: _161  and  _162
REMARK   65  A    between atoms: _165  and  _167
REMARK   66  A    between atoms: _167  and  _168
REMARK   67  A    between atoms: _167  and  _170
REMARK   68  A    between atoms: _170  and  _171
REMARK   69  A    between atoms: _171  and  _172
REMARK   70  A    between atoms: _175  and  _177
REMARK   71  A    between atoms: _177  and  _178
REMARK   72  A    between atoms: _177  and  _180
REMARK   73  A    between atoms: _180  and  _181
REMARK   74  A    between atoms: _181  and  _182
REMARK   75  A    between atoms: _187  and  _189
REMARK   76  A    between atoms: _189  and  _190
REMARK   77  A    between atoms: _189  and  _192
REMARK   78  A    between atoms: _192  and  _193
REMARK   79  A    between atoms: _199  and  _201
REMARK   80  A    between atoms: _201  and  _202
REMARK   81  A    between atoms: _201  and  _204
REMARK   82  A    between atoms: _204  and  _205
REMARK   83  A    between atoms: _209  and  _210
REMARK   84  A    between atoms: _215  and  _217
REMARK   85  A    between atoms: _217  and  _218
REMARK   86  A    between atoms: _217  and  _220
REMARK   87  A    between atoms: _220  and  _221
REMARK   88  A    between atoms: _223  and  _225
REMARK   89  A    between atoms: _225  and  _226
REMARK   90  A    between atoms: _225  and  _228
REMARK   91  A    between atoms: _228  and  _229
REMARK   92  A    between atoms: _229  and  _230
REMARK   93  A    between atoms: _230  and  _231
REMARK   94  A    between atoms: _240  and  _242
REMARK   95  A    between atoms: _242  and  _243
REMARK   96  A    between atoms: _242  and  _245
REMARK   97  A    between atoms: _245  and  _246
REMARK   98  A    between atoms: _246  and  _247
REMARK   99  A    between atoms: _247  and  _248
REMARK  100  A    between atoms: _257  and  _259
REMARK  101  A    between atoms: _259  and  _260
REMARK  102  A    between atoms: _259  and  _262
REMARK  103  A    between atoms: _262  and  _263
REMARK  104  A    between atoms: _266  and  _268
REMARK  105  A    between atoms: _268  and  _269
REMARK  106  A    between atoms: _268  and  _271
REMARK  107  A    between atoms: _271  and  _272
REMARK  108  A    between atoms: _277  and  _278
REMARK  109  A    between atoms: _280  and  _282
REMARK  110  A    between atoms: _282  and  _283
REMARK  111  A    between atoms: _282  and  _285
REMARK  112  A    between atoms: _285  and  _286
REMARK  113  A    between atoms: _291  and  _293
REMARK  114  A    between atoms: _293  and  _294
REMARK  115  A    between atoms: _293  and  _296
REMARK  116  A    between atoms: _296  and  _297
REMARK  117  A    between atoms: _300  and  _302
REMARK  118  A    between atoms: _302  and  _303
REMARK  119  A    between atoms: _302  and  _305
REMARK  120  A    between atoms: _307  and  _309
REMARK  121  A    between atoms: _309  and  _310
REMARK  122  A    between atoms: _309  and  _312
REMARK  123  A    between atoms: _312  and  _313
REMARK  124  A    between atoms: _313  and  _314
REMARK  125  A    between atoms: _319  and  _321
REMARK  126  A    between atoms: _321  and  _322
REMARK  127  A    between atoms: _321  and  _324
REMARK  128  A    between atoms: _324  and  _325
REMARK  129  A    between atoms: _325  and  _326
REMARK  130  A    between atoms: _329  and  _331
REMARK  131  A    between atoms: _331  and  _332
REMARK  132  A    between atoms: _334  and  _336
REMARK  133  A    between atoms: _336  and  _337
REMARK  134  A    between atoms: _336  and  _339
REMARK  135  A    between atoms: _339  and  _340
REMARK  136  A    between atoms: _345  and  _347
REMARK  137  A    between atoms: _347  and  _348
REMARK  138  A    between atoms: _347  and  _350
REMARK  139  A    between atoms: _350  and  _351
REMARK  140  A    between atoms: _354  and  _356
REMARK  141  A    between atoms: _356  and  _357
REMARK  142  A    between atoms: _356  and  _359
REMARK  143  A    between atoms: _359  and  _360
REMARK  144  A    between atoms: _363  and  _365
REMARK  145  A    between atoms: _365  and  _366
REMARK  146  A    between atoms: _365  and  _368
REMARK  147  A    between atoms: _368  and  _369
REMARK  148  A    between atoms: _369  and  _370
REMARK  149  A    between atoms: _372  and  _374
REMARK  150  A    between atoms: _374  and  _375
REMARK  151  A    between atoms: _374  and  _377
REMARK  152  A    between atoms: _377  and  _378
REMARK  153  A    between atoms: _381  and  _383
REMARK  154  A    between atoms: _383  and  _384
REMARK  155  A    between atoms: _383  and  _386
REMARK  156  A    between atoms: _386  and  _387
REMARK  157  A    between atoms: _390  and  _392
REMARK  158  A    between atoms: _392  and  _393
REMARK  159  A    between atoms: _392  and  _395
REMARK  160  A    between atoms: _395  and  _396
REMARK  161  A    between atoms: _396  and  _397
REMARK  162  A    between atoms: _400  and  _402
REMARK  163  A    between atoms: _402  and  _403
REMARK  164  A    between atoms: _402  and  _405
REMARK  165  A    between atoms: _405  and  _406
REMARK  166  A    between atoms: _411  and  _412
REMARK  167  A    between atoms: _414  and  _416
REMARK  168  A    between atoms: _416  and  _417
REMARK  169  A    between atoms: _416  and  _419
REMARK  170  A    between atoms: _419  and  _420
REMARK  171  A    between atoms: _426  and  _428
REMARK  172  A    between atoms: _428  and  _429
REMARK  173  A    between atoms: _428  and  _431
REMARK  174  A    between atoms: _431  and  _432
REMARK  175  A    between atoms: _437  and  _439
REMARK  176  A    between atoms: _439  and  _440
REMARK  177  A    between atoms: _439  and  _442
REMARK  178  A    between atoms: _442  and  _443
REMARK  179  A    between atoms: _443  and  _444
REMARK  180  A    between atoms: _447  and  _449
REMARK  181  A    between atoms: _449  and  _450
REMARK  182  A    between atoms: _449  and  _452
REMARK  183  A    between atoms: _452  and  _453
REMARK  184  A    between atoms: _458  and  _459
REMARK  185  A    between atoms: _461  and  _463
REMARK  186  A    between atoms: _463  and  _464
REMARK  187  A    between atoms: _463  and  _466
REMARK  188  A    between atoms: _466  and  _467
REMARK  189  A    between atoms: _470  and  _472
REMARK  190  A    between atoms: _472  and  _473
REMARK  191  A    between atoms: _472  and  _475
REMARK  192  A    between atoms: _475  and  _476
REMARK  193  A    between atoms: _481  and  _482
REMARK  194  A    between atoms: _484  and  _486
REMARK  195  A    between atoms: _486  and  _487
REMARK  196  A    between atoms: _486  and  _489
REMARK  197  A    between atoms: _489  and  _490
REMARK  198  A    between atoms: _493  and  _494
REMARK  199  A    between atoms: _499  and  _501
REMARK  200  A    between atoms: _501  and  _502
REMARK  201  A    between atoms: _501  and  _504
REMARK  202  A    between atoms: _504  and  _505
REMARK  203  A    between atoms: _511  and  _513
REMARK  204  A    between atoms: _513  and  _514
REMARK  205  A    between atoms: _513  and  _516
REMARK  206  A    between atoms: _516  and  _517
REMARK  207  A    between atoms: _523  and  _525
REMARK  208  A    between atoms: _525  and  _526
REMARK  209  A    between atoms: _525  and  _528
REMARK  210  A    between atoms: _528  and  _529
REMARK  211  A    between atoms: _531  and  _533
REMARK  212  A    between atoms: _533  and  _534
REMARK  213  A    between atoms: _533  and  _536
REMARK  214  A    between atoms: _536  and  _537
REMARK  215  A    between atoms: _540  and  _542
REMARK  216  A    between atoms: _542  and  _543
REMARK  217  A    between atoms: _542  and  _545
REMARK  218  A    between atoms: _545  and  _546
REMARK  219  A    between atoms: _556  and  _558
REMARK  220  A    between atoms: _558  and  _559
REMARK  221  A    between atoms: _561  and  _563
REMARK  222  A    between atoms: _563  and  _564
REMARK  223  A    between atoms: _563  and  _566
REMARK  224  A    between atoms: _566  and  _567
REMARK  225  A    between atoms: _577  and  _579
REMARK  226  A    between atoms: _579  and  _580
REMARK  227  A    between atoms: _579  and  _582
REMARK  228  A    between atoms: _582  and  _583
REMARK  229  A    between atoms: _585  and  _587
REMARK  230  A    between atoms: _587  and  _588
REMARK  231  A    between atoms: _587  and  _590
REMARK  232  A    between atoms: _590  and  _591
REMARK  233  A    between atoms: _591  and  _592
REMARK  234  A    between atoms: _597  and  _599
REMARK  235  A    between atoms: _599  and  _600
REMARK  236  A    between atoms: _599  and  _602
REMARK  237  A    between atoms: _602  and  _603
REMARK  238  A    between atoms: _605  and  _607
REMARK  239  A    between atoms: _607  and  _608
REMARK  240  A    between atoms: _607  and  _610
REMARK  241  A    between atoms: _610  and  _611
REMARK  242  A    between atoms: _614  and  _616
REMARK  243  A    between atoms: _616  and  _617
REMARK  244  A    between atoms: _616  and  _619
REMARK  245  A    between atoms: _619  and  _620
REMARK  246  A    between atoms: _620  and  _621
REMARK  247  A    between atoms: _624  and  _626
REMARK  248  A    between atoms: _626  and  _627
REMARK  249  A    between atoms: _626  and  _629
REMARK  250  A    between atoms: _629  and  _630
REMARK  251  A    between atoms: _636  and  _638
REMARK  252  A    between atoms: _638  and  _639
REMARK  253  A    between atoms: _641  and  _643
REMARK  254  A    between atoms: _643  and  _644
REMARK  255  A    between atoms: _643  and  _646
REMARK  256  A    between atoms: _646  and  _647
REMARK  257  A    between atoms: _652  and  _653
REMARK  258  A    between atoms: _655  and  _657
REMARK  259  A    between atoms: _657  and  _658
REMARK  260  A    between atoms: _657  and  _660
REMARK  261  A    between atoms: _660  and  _661
REMARK  262  A    between atoms: _666  and  _667
REMARK  263  A    between atoms: _669  and  _671
REMARK  264  A    between atoms: _671  and  _672
REMARK  265  A    between atoms: _671  and  _674
REMARK  266  A    between atoms: _674  and  _675
REMARK  267  A    between atoms: _675  and  _676
REMARK  268  A    between atoms: _676  and  _677
REMARK                            x       y       z     vdW  Elec       q    Type
REMARK                         _______ _______ _______ _____ _____    ______ ____
ROOT
ATOM      1  O   HOH     1     -26.895   6.409 -17.936  0.00  0.00    +0.000 OA
ENDROOT
TORSDOF 0
REMARK  Name = ../refined-set-2016/3zm9/3zm9_pocket.pdb
REMARK  268 active torsions:
REMARK  status: ('A' for Active; 'I' for Inactive)
REMARK    1  A    between atoms: _1  and  _3
REMARK    2  A    between atoms: _3  and  _4
REMARK    3  A    between atoms: _3  and  _6
REMARK    4  A    between atoms: _6  and  _7
REMARK    5  A    between atoms: _10  and  _12
REMARK    6  A    between atoms: _12  and  _13
REMARK    7  A    between atoms: _12  and  _15
REMARK    8  A    between atoms: _15  and  _16
REMARK    9  A    between atoms: _16  and  _17
REMARK   10  A    between atoms: _17  and  _18
REMARK   11  A    between atoms: _27  and  _29
REMARK   12  A    between atoms: _29  and  _30
REMARK   13  A    between atoms: _29  and  _32
REMARK   14  A    between atoms: _32  and  _33
REMARK   15  A    between atoms: _38  and  _40
REMARK   16  A    between atoms: _40  and  _41
REMARK   17  A    between atoms: _40  and  _43
REMARK   18  A    between atoms: _43  and  _44
REMARK   19  A    between atoms: _47  and  _49
REMARK   20  A    between atoms: _49  and  _50
REMARK   21  A    between atoms: _49  and  _52
REMARK   22  A    between atoms: _52  and  _53
REMARK   23  A    between atoms: _53  and  _54
REMARK   24  A    between atoms: _59  and  _61
REMARK   25  A    between atoms: _61  and  _62
REMARK   26  A    between atoms: _61  and  _64
REMARK   27  A    between atoms: _67  and  _69
REMARK   28  A    between atoms: _69  and  _70
REMARK   29  A    between atoms: _69  and  _72
REMARK   30  A    between atoms: _72  and  _73
REMARK   31  A    between atoms: _76  and  _78
REMARK   32  A    between atoms: _78  and  _79
REMARK   33  A    between atoms: _78  and  _81
REMARK   34  A    between atoms: _81  and  _82
REMARK   35  A    between atoms: _85  and  _87
REMARK   36  A    between atoms: _87  and  _88
REMARK   37  A    between atoms: _87  and  _90
REMARK   38  A    between atoms: _90  and  _91
REMARK   39  A    between atoms: _91  and  _92
REMARK   40  A    between atoms: _92  and  _93
REMARK   41  A    between atoms: _102  and  _104
REMARK   42  A    between atoms: _104  and  _105
REMARK   43  A    between atoms: _104  and  _107
REMARK   44  A    between atoms: _107  and  _108
REMARK   45  A    between atoms: _114  and  _116
REMARK   46  A    between atoms: _116  and  _117
REMARK   47  A    between atoms: _120  and  _121
REMARK   48  A    between atoms: _126  and  _128
REMARK   49  A    between atoms: _128  and  _129
REMARK   50  A    between atoms: _128  and  _131
REMARK   51  A    between atoms: _131  and  _132
REMARK   52  A    between atoms: _132  and  _133
REMARK   53  A    between atoms: _133  and  _134
REMARK   54  A    between atoms: _134  and  _135
REMARK   55  A    between atoms: _139  and  _141
REMARK   56  A    between atoms: _141  and  _142
REMARK   57  A    between atoms: _141  and  _144
REMARK   58  A    between atoms: _144  and  _145
REMARK   59  A    between atoms: _145  and  _146
REMARK   60  A    between atoms: _146  and  _147
REMARK   61  A    between atoms: _156  and  _158
REMARK   62  A    between atoms: _158  and  _159
REMARK   63  A    between atoms: _158  and  _161
REMARK   64  A    between atoms: _161  and  _162
REMARK   65  A    between atoms: _165  and  _167
REMARK   66  A    between atoms: _167  and  _168
REMARK   67  A    between atoms: _167  and  _170
REMARK   68  A    between atoms: _170  and  _171
REMARK   69  A    between atoms: _171  and  _172
REMARK   70  A    between atoms: _175  and  _177
REMARK   71  A    between atoms: _177  and  _178
REMARK   72  A    between atoms: _177  and  _180
REMARK   73  A    between atoms: _180  and  _181
REMARK   74  A    between atoms: _181  and  _182
REMARK   75  A    between atoms: _187  and  _189
REMARK   76  A    between atoms: _189  and  _190
REMARK   77  A    between atoms: _189  and  _192
REMARK   78  A    between atoms: _192  and  _193
REMARK   79  A    between atoms: _199  and  _201
REMARK   80  A    between atoms: _201  and  _202
REMARK   81  A    between atoms: _201  and  _204
REMARK   82  A    between atoms: _204  and  _205
REMARK   83  A    between atoms: _209  and  _210
REMARK   84  A    between atoms: _215  and  _217
REMARK   85  A    between atoms: _217  and  _218
REMARK   86  A    between atoms: _217  and  _220
REMARK   87  A    between atoms: _220  and  _221
REMARK   88  A    between atoms: _223  and  _225
REMARK   89  A    between atoms: _225  and  _226
REMARK   90  A    between atoms: _225  and  _228
REMARK   91  A    between atoms: _228  and  _229
REMARK   92  A    between atoms: _229  and  _230
REMARK   93  A    between atoms: _230  and  _231
REMARK   94  A    between atoms: _240  and  _242
REMARK   95  A    between atoms: _242  and  _243
REMARK   96  A    between atoms: _242  and  _245
REMARK   97  A    between atoms: _245  and  _246
REMARK   98  A    between atoms: _246  and  _247
REMARK   99  A    between atoms: _247  and  _248
REMARK  100  A    between atoms: _257  and  _259
REMARK  101  A    between atoms: _259  and  _260
REMARK  102  A    between atoms: _259  and  _262
REMARK  103  A    between atoms: _262  and  _263
REMARK  104  A    between atoms: _266  and  _268
REMARK  105  A    between atoms: _268  and  _269
REMARK  106  A    between atoms: _268  and  _271
REMARK  107  A    between atoms: _271  and  _272
REMARK  108  A    between atoms: _277  and  _278
REMARK  109  A    between atoms: _280  and  _282
REMARK  110  A    between atoms: _282  and  _283
REMARK  111  A    between atoms: _282  and  _285
REMARK  112  A    between atoms: _285  and  _286
REMARK  113  A    between atoms: _291  and  _293
REMARK  114  A    between atoms: _293  and  _294
REMARK  115  A    between atoms: _293  and  _296
REMARK  116  A    between atoms: _296  and  _297
REMARK  117  A    between atoms: _300  and  _302
REMARK  118  A    between atoms: _302  and  _303
REMARK  119  A    between atoms: _302  and  _305
REMARK  120  A    between atoms: _307  and  _309
REMARK  121  A    between atoms: _309  and  _310
REMARK  122  A    between atoms: _309  and  _312
REMARK  123  A    between atoms: _312  and  _313
REMARK  124  A    between atoms: _313  and  _314
REMARK  125  A    between atoms: _319  and  _321
REMARK  126  A    between atoms: _321  and  _322
REMARK  127  A    between atoms: _321  and  _324
REMARK  128  A    between atoms: _324  and  _325
REMARK  129  A    between atoms: _325  and  _326
REMARK  130  A    between atoms: _329  and  _331
REMARK  131  A    between atoms: _331  and  _332
REMARK  132  A    between atoms: _334  and  _336
REMARK  133  A    between atoms: _336  and  _337
REMARK  134  A    between atoms: _336  and  _339
REMARK  135  A    between atoms: _339  and  _340
REMARK  136  A    between atoms: _345  and  _347
REMARK  137  A    between atoms: _347  and  _348
REMARK  138  A    between atoms: _347  and  _350
REMARK  139  A    between atoms: _350  and  _351
REMARK  140  A    between atoms: _354  and  _356
REMARK  141  A    between atoms: _356  and  _357
REMARK  142  A    between atoms: _356  and  _359
REMARK  143  A    between atoms: _359  and  _360
REMARK  144  A    between atoms: _363  and  _365
REMARK  145  A    between atoms: _365  and  _366
REMARK  146  A    between atoms: _365  and  _368
REMARK  147  A    between atoms: _368  and  _369
REMARK  148  A    between atoms: _369  and  _370
REMARK  149  A    between atoms: _372  and  _374
REMARK  150  A    between atoms: _374  and  _375
REMARK  151  A    between atoms: _374  and  _377
REMARK  152  A    between atoms: _377  and  _378
REMARK  153  A    between atoms: _381  and  _383
REMARK  154  A    between atoms: _383  and  _384
REMARK  155  A    between atoms: _383  and  _386
REMARK  156  A    between atoms: _386  and  _387
REMARK  157  A    between atoms: _390  and  _392
REMARK  158  A    between atoms: _392  and  _393
REMARK  159  A    between atoms: _392  and  _395
REMARK  160  A    between atoms: _395  and  _396
REMARK  161  A    between atoms: _396  and  _397
REMARK  162  A    between atoms: _400  and  _402
REMARK  163  A    between atoms: _402  and  _403
REMARK  164  A    between atoms: _402  and  _405
REMARK  165  A    between atoms: _405  and  _406
REMARK  166  A    between atoms: _411  and  _412
REMARK  167  A    between atoms: _414  and  _416
REMARK  168  A    between atoms: _416  and  _417
REMARK  169  A    between atoms: _416  and  _419
REMARK  170  A    between atoms: _419  and  _420
REMARK  171  A    between atoms: _426  and  _428
REMARK  172  A    between atoms: _428  and  _429
REMARK  173  A    between atoms: _428  and  _431
REMARK  174  A    between atoms: _431  and  _432
REMARK  175  A    between atoms: _437  and  _439
REMARK  176  A    between atoms: _439  and  _440
REMARK  177  A    between atoms: _439  and  _442
REMARK  178  A    between atoms: _442  and  _443
REMARK  179  A    between atoms: _443  and  _444
REMARK  180  A    between atoms: _447  and  _449
REMARK  181  A    between atoms: _449  and  _450
REMARK  182  A    between atoms: _449  and  _452
REMARK  183  A    between atoms: _452  and  _453
REMARK  184  A    between atoms: _458  and  _459
REMARK  185  A    between atoms: _461  and  _463
REMARK  186  A    between atoms: _463  and  _464
REMARK  187  A    between atoms: _463  and  _466
REMARK  188  A    between atoms: _466  and  _467
REMARK  189  A    between atoms: _470  and  _472
REMARK  190  A    between atoms: _472  and  _473
REMARK  191  A    between atoms: _472  and  _475
REMARK  192  A    between atoms: _475  and  _476
REMARK  193  A    between atoms: _481  and  _482
REMARK  194  A    between atoms: _484  and  _486
REMARK  195  A    between atoms: _486  and  _487
REMARK  196  A    between atoms: _486  and  _489
REMARK  197  A    between atoms: _489  and  _490
REMARK  198  A    between atoms: _493  and  _494
REMARK  199  A    between atoms: _499  and  _501
REMARK  200  A    between atoms: _501  and  _502
REMARK  201  A    between atoms: _501  and  _504
REMARK  202  A    between atoms: _504  and  _505
REMARK  203  A    between atoms: _511  and  _513
REMARK  204  A    between atoms: _513  and  _514
REMARK  205  A    between atoms: _513  and  _516
REMARK  206  A    between atoms: _516  and  _517
REMARK  207  A    between atoms: _523  and  _525
REMARK  208  A    between atoms: _525  and  _526
REMARK  209  A    between atoms: _525  and  _528
REMARK  210  A    between atoms: _528  and  _529
REMARK  211  A    between atoms: _531  and  _533
REMARK  212  A    between atoms: _533  and  _534
REMARK  213  A    between atoms: _533  and  _536
REMARK  214  A    between atoms: _536  and  _537
REMARK  215  A    between atoms: _540  and  _542
REMARK  216  A    between atoms: _542  and  _543
REMARK  217  A    between atoms: _542  and  _545
REMARK  218  A    between atoms: _545  and  _546
REMARK  219  A    between atoms: _556  and  _558
REMARK  220  A    between atoms: _558  and  _559
REMARK  221  A    between atoms: _561  and  _563
REMARK  222  A    between atoms: _563  and  _564
REMARK  223  A    between atoms: _563  and  _566
REMARK  224  A    between atoms: _566  and  _567
REMARK  225  A    between atoms: _577  and  _579
REMARK  226  A    between atoms: _579  and  _580
REMARK  227  A    between atoms: _579  and  _582
REMARK  228  A    between atoms: _582  and  _583
REMARK  229  A    between atoms: _585  and  _587
REMARK  230  A    between atoms: _587  and  _588
REMARK  231  A    between atoms: _587  and  _590
REMARK  232  A    between atoms: _590  and  _591
REMARK  233  A    between atoms: _591  and  _592
REMARK  234  A    between atoms: _597  and  _599
REMARK  235  A    between atoms: _599  and  _600
REMARK  236  A    between atoms: _599  and  _602
REMARK  237  A    between atoms: _602  and  _603
REMARK  238  A    between atoms: _605  and  _607
REMARK  239  A    between atoms: _607  and  _608
REMARK  240  A    between atoms: _607  and  _610
REMARK  241  A    between atoms: _610  and  _611
REMARK  242  A    between atoms: _614  and  _616
REMARK  243  A    between atoms: _616  and  _617
REMARK  244  A    between atoms: _616  and  _619
REMARK  245  A    between atoms: _619  and  _620
REMARK  246  A    between atoms: _620  and  _621
REMARK  247  A    between atoms: _624  and  _626
REMARK  248  A    between atoms: _626  and  _627
REMARK  249  A    between atoms: _626  and  _629
REMARK  250  A    between atoms: _629  and  _630
REMARK  251  A    between atoms: _636  and  _638
REMARK  252  A    between atoms: _638  and  _639
REMARK  253  A    between atoms: _641  and  _643
REMARK  254  A    between atoms: _643  and  _644
REMARK  255  A    between atoms: _643  and  _646
REMARK  256  A    between atoms: _646  and  _647
REMARK  257  A    between atoms: _652  and  _653
REMARK  258  A    between atoms: _655  and  _657
REMARK  259  A    between atoms: _657  and  _658
REMARK  260  A    between atoms: _657  and  _660
REMARK  261  A    between atoms: _660  and  _661
REMARK  262  A    between atoms: _666  and  _667
REMARK  263  A    between atoms: _669  and  _671
REMARK  264  A    between atoms: _671  and  _672
REMARK  265  A    between atoms: _671  and  _674
REMARK  266  A    between atoms: _674  and  _675
REMARK  267  A    between atoms: _675  and  _676
REMARK  268  A    between atoms: _676  and  _677
REMARK                            x       y       z     vdW  Elec       q    Type
REMARK                         _______ _______ _______ _____ _____    ______ ____
ROOT
ATOM      1  O   HOH     1     -26.316  10.178 -15.987  0.00  0.00    +0.000 OA
ENDROOT
TORSDOF 0
REMARK  Name = ../refined-set-2016/3zm9/3zm9_pocket.pdb
REMARK  268 active torsions:
REMARK  status: ('A' for Active; 'I' for Inactive)
REMARK    1  A    between atoms: _1  and  _3
REMARK    2  A    between atoms: _3  and  _4
REMARK    3  A    between atoms: _3  and  _6
REMARK    4  A    between atoms: _6  and  _7
REMARK    5  A    between atoms: _10  and  _12
REMARK    6  A    between atoms: _12  and  _13
REMARK    7  A    between atoms: _12  and  _15
REMARK    8  A    between atoms: _15  and  _16
REMARK    9  A    between atoms: _16  and  _17
REMARK   10  A    between atoms: _17  and  _18
REMARK   11  A    between atoms: _27  and  _29
REMARK   12  A    between atoms: _29  and  _30
REMARK   13  A    between atoms: _29  and  _32
REMARK   14  A    between atoms: _32  and  _33
REMARK   15  A    between atoms: _38  and  _40
REMARK   16  A    between atoms: _40  and  _41
REMARK   17  A    between atoms: _40  and  _43
REMARK   18  A    between atoms: _43  and  _44
REMARK   19  A    between atoms: _47  and  _49
REMARK   20  A    between atoms: _49  and  _50
REMARK   21  A    between atoms: _49  and  _52
REMARK   22  A    between atoms: _52  and  _53
REMARK   23  A    between atoms: _53  and  _54
REMARK   24  A    between atoms: _59  and  _61
REMARK   25  A    between atoms: _61  and  _62
REMARK   26  A    between atoms: _61  and  _64
REMARK   27  A    between atoms: _67  and  _69
REMARK   28  A    between atoms: _69  and  _70
REMARK   29  A    between atoms: _69  and  _72
REMARK   30  A    between atoms: _72  and  _73
REMARK   31  A    between atoms: _76  and  _78
REMARK   32  A    between atoms: _78  and  _79
REMARK   33  A    between atoms: _78  and  _81
REMARK   34  A    between atoms: _81  and  _82
REMARK   35  A    between atoms: _85  and  _87
REMARK   36  A    between atoms: _87  and  _88
REMARK   37  A    between atoms: _87  and  _90
REMARK   38  A    between atoms: _90  and  _91
REMARK   39  A    between atoms: _91  and  _92
REMARK   40  A    between atoms: _92  and  _93
REMARK   41  A    between atoms: _102  and  _104
REMARK   42  A    between atoms: _104  and  _105
REMARK   43  A    between atoms: _104  and  _107
REMARK   44  A    between atoms: _107  and  _108
REMARK   45  A    between atoms: _114  and  _116
REMARK   46  A    between atoms: _116  and  _117
REMARK   47  A    between atoms: _120  and  _121
REMARK   48  A    between atoms: _126  and  _128
REMARK   49  A    between atoms: _128  and  _129
REMARK   50  A    between atoms: _128  and  _131
REMARK   51  A    between atoms: _131  and  _132
REMARK   52  A    between atoms: _132  and  _133
REMARK   53  A    between atoms: _133  and  _134
REMARK   54  A    between atoms: _134  and  _135
REMARK   55  A    between atoms: _139  and  _141
REMARK   56  A    between atoms: _141  and  _142
REMARK   57  A    between atoms: _141  and  _144
REMARK   58  A    between atoms: _144  and  _145
REMARK   59  A    between atoms: _145  and  _146
REMARK   60  A    between atoms: _146  and  _147
REMARK   61  A    between atoms: _156  and  _158
REMARK   62  A    between atoms: _158  and  _159
REMARK   63  A    between atoms: _158  and  _161
REMARK   64  A    between atoms: _161  and  _162
REMARK   65  A    between atoms: _165  and  _167
REMARK   66  A    between atoms: _167  and  _168
REMARK   67  A    between atoms: _167  and  _170
REMARK   68  A    between atoms: _170  and  _171
REMARK   69  A    between atoms: _171  and  _172
REMARK   70  A    between atoms: _175  and  _177
REMARK   71  A    between atoms: _177  and  _178
REMARK   72  A    between atoms: _177  and  _180
REMARK   73  A    between atoms: _180  and  _181
REMARK   74  A    between atoms: _181  and  _182
REMARK   75  A    between atoms: _187  and  _189
REMARK   76  A    between atoms: _189  and  _190
REMARK   77  A    between atoms: _189  and  _192
REMARK   78  A    between atoms: _192  and  _193
REMARK   79  A    between atoms: _199  and  _201
REMARK   80  A    between atoms: _201  and  _202
REMARK   81  A    between atoms: _201  and  _204
REMARK   82  A    between atoms: _204  and  _205
REMARK   83  A    between atoms: _209  and  _210
REMARK   84  A    between atoms: _215  and  _217
REMARK   85  A    between atoms: _217  and  _218
REMARK   86  A    between atoms: _217  and  _220
REMARK   87  A    between atoms: _220  and  _221
REMARK   88  A    between atoms: _223  and  _225
REMARK   89  A    between atoms: _225  and  _226
REMARK   90  A    between atoms: _225  and  _228
REMARK   91  A    between atoms: _228  and  _229
REMARK   92  A    between atoms: _229  and  _230
REMARK   93  A    between atoms: _230  and  _231
REMARK   94  A    between atoms: _240  and  _242
REMARK   95  A    between atoms: _242  and  _243
REMARK   96  A    between atoms: _242  and  _245
REMARK   97  A    between atoms: _245  and  _246
REMARK   98  A    between atoms: _246  and  _247
REMARK   99  A    between atoms: _247  and  _248
REMARK  100  A    between atoms: _257  and  _259
REMARK  101  A    between atoms: _259  and  _260
REMARK  102  A    between atoms: _259  and  _262
REMARK  103  A    between atoms: _262  and  _263
REMARK  104  A    between atoms: _266  and  _268
REMARK  105  A    between atoms: _268  and  _269
REMARK  106  A    between atoms: _268  and  _271
REMARK  107  A    between atoms: _271  and  _272
REMARK  108  A    between atoms: _277  and  _278
REMARK  109  A    between atoms: _280  and  _282
REMARK  110  A    between atoms: _282  and  _283
REMARK  111  A    between atoms: _282  and  _285
REMARK  112  A    between atoms: _285  and  _286
REMARK  113  A    between atoms: _291  and  _293
REMARK  114  A    between atoms: _293  and  _294
REMARK  115  A    between atoms: _293  and  _296
REMARK  116  A    between atoms: _296  and  _297
REMARK  117  A    between atoms: _300  and  _302
REMARK  118  A    between atoms: _302  and  _303
REMARK  119  A    between atoms: _302  and  _305
REMARK  120  A    between atoms: _307  and  _309
REMARK  121  A    between atoms: _309  and  _310
REMARK  122  A    between atoms: _309  and  _312
REMARK  123  A    between atoms: _312  and  _313
REMARK  124  A    between atoms: _313  and  _314
REMARK  125  A    between atoms: _319  and  _321
REMARK  126  A    between atoms: _321  and  _322
REMARK  127  A    between atoms: _321  and  _324
REMARK  128  A    between atoms: _324  and  _325
REMARK  129  A    between atoms: _325  and  _326
REMARK  130  A    between atoms: _329  and  _331
REMARK  131  A    between atoms: _331  and  _332
REMARK  132  A    between atoms: _334  and  _336
REMARK  133  A    between atoms: _336  and  _337
REMARK  134  A    between atoms: _336  and  _339
REMARK  135  A    between atoms: _339  and  _340
REMARK  136  A    between atoms: _345  and  _347
REMARK  137  A    between atoms: _347  and  _348
REMARK  138  A    between atoms: _347  and  _350
REMARK  139  A    between atoms: _350  and  _351
REMARK  140  A    between atoms: _354  and  _356
REMARK  141  A    between atoms: _356  and  _357
REMARK  142  A    between atoms: _356  and  _359
REMARK  143  A    between atoms: _359  and  _360
REMARK  144  A    between atoms: _363  and  _365
REMARK  145  A    between atoms: _365  and  _366
REMARK  146  A    between atoms: _365  and  _368
REMARK  147  A    between atoms: _368  and  _369
REMARK  148  A    between atoms: _369  and  _370
REMARK  149  A    between atoms: _372  and  _374
REMARK  150  A    between atoms: _374  and  _375
REMARK  151  A    between atoms: _374  and  _377
REMARK  152  A    between atoms: _377  and  _378
REMARK  153  A    between atoms: _381  and  _383
REMARK  154  A    between atoms: _383  and  _384
REMARK  155  A    between atoms: _383  and  _386
REMARK  156  A    between atoms: _386  and  _387
REMARK  157  A    between atoms: _390  and  _392
REMARK  158  A    between atoms: _392  and  _393
REMARK  159  A    between atoms: _392  and  _395
REMARK  160  A    between atoms: _395  and  _396
REMARK  161  A    between atoms: _396  and  _397
REMARK  162  A    between atoms: _400  and  _402
REMARK  163  A    between atoms: _402  and  _403
REMARK  164  A    between atoms: _402  and  _405
REMARK  165  A    between atoms: _405  and  _406
REMARK  166  A    between atoms: _411  and  _412
REMARK  167  A    between atoms: _414  and  _416
REMARK  168  A    between atoms: _416  and  _417
REMARK  169  A    between atoms: _416  and  _419
REMARK  170  A    between atoms: _419  and  _420
REMARK  171  A    between atoms: _426  and  _428
REMARK  172  A    between atoms: _428  and  _429
REMARK  173  A    between atoms: _428  and  _431
REMARK  174  A    between atoms: _431  and  _432
REMARK  175  A    between atoms: _437  and  _439
REMARK  176  A    between atoms: _439  and  _440
REMARK  177  A    between atoms: _439  and  _442
REMARK  178  A    between atoms: _442  and  _443
REMARK  179  A    between atoms: _443  and  _444
REMARK  180  A    between atoms: _447  and  _449
REMARK  181  A    between atoms: _449  and  _450
REMARK  182  A    between atoms: _449  and  _452
REMARK  183  A    between atoms: _452  and  _453
REMARK  184  A    between atoms: _458  and  _459
REMARK  185  A    between atoms: _461  and  _463
REMARK  186  A    between atoms: _463  and  _464
REMARK  187  A    between atoms: _463  and  _466
REMARK  188  A    between atoms: _466  and  _467
REMARK  189  A    between atoms: _470  and  _472
REMARK  190  A    between atoms: _472  and  _473
REMARK  191  A    between atoms: _472  and  _475
REMARK  192  A    between atoms: _475  and  _476
REMARK  193  A    between atoms: _481  and  _482
REMARK  194  A    between atoms: _484  and  _486
REMARK  195  A    between atoms: _486  and  _487
REMARK  196  A    between atoms: _486  and  _489
REMARK  197  A    between atoms: _489  and  _490
REMARK  198  A    between atoms: _493  and  _494
REMARK  199  A    between atoms: _499  and  _501
REMARK  200  A    between atoms: _501  and  _502
REMARK  201  A    between atoms: _501  and  _504
REMARK  202  A    between atoms: _504  and  _505
REMARK  203  A    between atoms: _511  and  _513
REMARK  204  A    between atoms: _513  and  _514
REMARK  205  A    between atoms: _513  and  _516
REMARK  206  A    between atoms: _516  and  _517
REMARK  207  A    between atoms: _523  and  _525
REMARK  208  A    between atoms: _525  and  _526
REMARK  209  A    between atoms: _525  and  _528
REMARK  210  A    between atoms: _528  and  _529
REMARK  211  A    between atoms: _531  and  _533
REMARK  212  A    between atoms: _533  and  _534
REMARK  213  A    between atoms: _533  and  _536
REMARK  214  A    between atoms: _536  and  _537
REMARK  215  A    between atoms: _540  and  _542
REMARK  216  A    between atoms: _542  and  _543
REMARK  217  A    between atoms: _542  and  _545
REMARK  218  A    between atoms: _545  and  _546
REMARK  219  A    between atoms: _556  and  _558
REMARK  220  A    between atoms: _558  and  _559
REMARK  221  A    between atoms: _561  and  _563
REMARK  222  A    between atoms: _563  and  _564
REMARK  223  A    between atoms: _563  and  _566
REMARK  224  A    between atoms: _566  and  _567
REMARK  225  A    between atoms: _577  and  _579
REMARK  226  A    between atoms: _579  and  _580
REMARK  227  A    between atoms: _579  and  _582
REMARK  228  A    between atoms: _582  and  _583
REMARK  229  A    between atoms: _585  and  _587
REMARK  230  A    between atoms: _587  and  _588
REMARK  231  A    between atoms: _587  and  _590
REMARK  232  A    between atoms: _590  and  _591
REMARK  233  A    between atoms: _591  and  _592
REMARK  234  A    between atoms: _597  and  _599
REMARK  235  A    between atoms: _599  and  _600
REMARK  236  A    between atoms: _599  and  _602
REMARK  237  A    between atoms: _602  and  _603
REMARK  238  A    between atoms: _605  and  _607
REMARK  239  A    between atoms: _607  and  _608
REMARK  240  A    between atoms: _607  and  _610
REMARK  241  A    between atoms: _610  and  _611
REMARK  242  A    between atoms: _614  and  _616
REMARK  243  A    between atoms: _616  and  _617
REMARK  244  A    between atoms: _616  and  _619
REMARK  245  A    between atoms: _619  and  _620
REMARK  246  A    between atoms: _620  and  _621
REMARK  247  A    between atoms: _624  and  _626
REMARK  248  A    between atoms: _626  and  _627
REMARK  249  A    between atoms: _626  and  _629
REMARK  250  A    between atoms: _629  and  _630
REMARK  251  A    between atoms: _636  and  _638
REMARK  252  A    between atoms: _638  and  _639
REMARK  253  A    between atoms: _641  and  _643
REMARK  254  A    between atoms: _643  and  _644
REMARK  255  A    between atoms: _643  and  _646
REMARK  256  A    between atoms: _646  and  _647
REMARK  257  A    between atoms: _652  and  _653
REMARK  258  A    between atoms: _655  and  _657
REMARK  259  A    between atoms: _657  and  _658
REMARK  260  A    between atoms: _657  and  _660
REMARK  261  A    between atoms: _660  and  _661
REMARK  262  A    between atoms: _666  and  _667
REMARK  263  A    between atoms: _669  and  _671
REMARK  264  A    between atoms: _671  and  _672
REMARK  265  A    between atoms: _671  and  _674
REMARK  266  A    between atoms: _674  and  _675
REMARK  267  A    between atoms: _675  and  _676
REMARK  268  A    between atoms: _676  and  _677
REMARK                            x       y       z     vdW  Elec       q    Type
REMARK                         _______ _______ _______ _____ _____    ______ ____
ROOT
ATOM      1  O   HOH     1     -23.335  11.565 -12.904  0.00  0.00    +0.000 OA
ENDROOT
TORSDOF 0
REMARK  Name = ../refined-set-2016/3zm9/3zm9_pocket.pdb
REMARK  268 active torsions:
REMARK  status: ('A' for Active; 'I' for Inactive)
REMARK    1  A    between atoms: _1  and  _3
REMARK    2  A    between atoms: _3  and  _4
REMARK    3  A    between atoms: _3  and  _6
REMARK    4  A    between atoms: _6  and  _7
REMARK    5  A    between atoms: _10  and  _12
REMARK    6  A    between atoms: _12  and  _13
REMARK    7  A    between atoms: _12  and  _15
REMARK    8  A    between atoms: _15  and  _16
REMARK    9  A    between atoms: _16  and  _17
REMARK   10  A    between atoms: _17  and  _18
REMARK   11  A    between atoms: _27  and  _29
REMARK   12  A    between atoms: _29  and  _30
REMARK   13  A    between atoms: _29  and  _32
REMARK   14  A    between atoms: _32  and  _33
REMARK   15  A    between atoms: _38  and  _40
REMARK   16  A    between atoms: _40  and  _41
REMARK   17  A    between atoms: _40  and  _43
REMARK   18  A    between atoms: _43  and  _44
REMARK   19  A    between atoms: _47  and  _49
REMARK   20  A    between atoms: _49  and  _50
REMARK   21  A    between atoms: _49  and  _52
REMARK   22  A    between atoms: _52  and  _53
REMARK   23  A    between atoms: _53  and  _54
REMARK   24  A    between atoms: _59  and  _61
REMARK   25  A    between atoms: _61  and  _62
REMARK   26  A    between atoms: _61  and  _64
REMARK   27  A    between atoms: _67  and  _69
REMARK   28  A    between atoms: _69  and  _70
REMARK   29  A    between atoms: _69  and  _72
REMARK   30  A    between atoms: _72  and  _73
REMARK   31  A    between atoms: _76  and  _78
REMARK   32  A    between atoms: _78  and  _79
REMARK   33  A    between atoms: _78  and  _81
REMARK   34  A    between atoms: _81  and  _82
REMARK   35  A    between atoms: _85  and  _87
REMARK   36  A    between atoms: _87  and  _88
REMARK   37  A    between atoms: _87  and  _90
REMARK   38  A    between atoms: _90  and  _91
REMARK   39  A    between atoms: _91  and  _92
REMARK   40  A    between atoms: _92  and  _93
REMARK   41  A    between atoms: _102  and  _104
REMARK   42  A    between atoms: _104  and  _105
REMARK   43  A    between atoms: _104  and  _107
REMARK   44  A    between atoms: _107  and  _108
REMARK   45  A    between atoms: _114  and  _116
REMARK   46  A    between atoms: _116  and  _117
REMARK   47  A    between atoms: _120  and  _121
REMARK   48  A    between atoms: _126  and  _128
REMARK   49  A    between atoms: _128  and  _129
REMARK   50  A    between atoms: _128  and  _131
REMARK   51  A    between atoms: _131  and  _132
REMARK   52  A    between atoms: _132  and  _133
REMARK   53  A    between atoms: _133  and  _134
REMARK   54  A    between atoms: _134  and  _135
REMARK   55  A    between atoms: _139  and  _141
REMARK   56  A    between atoms: _141  and  _142
REMARK   57  A    between atoms: _141  and  _144
REMARK   58  A    between atoms: _144  and  _145
REMARK   59  A    between atoms: _145  and  _146
REMARK   60  A    between atoms: _146  and  _147
REMARK   61  A    between atoms: _156  and  _158
REMARK   62  A    between atoms: _158  and  _159
REMARK   63  A    between atoms: _158  and  _161
REMARK   64  A    between atoms: _161  and  _162
REMARK   65  A    between atoms: _165  and  _167
REMARK   66  A    between atoms: _167  and  _168
REMARK   67  A    between atoms: _167  and  _170
REMARK   68  A    between atoms: _170  and  _171
REMARK   69  A    between atoms: _171  and  _172
REMARK   70  A    between atoms: _175  and  _177
REMARK   71  A    between atoms: _177  and  _178
REMARK   72  A    between atoms: _177  and  _180
REMARK   73  A    between atoms: _180  and  _181
REMARK   74  A    between atoms: _181  and  _182
REMARK   75  A    between atoms: _187  and  _189
REMARK   76  A    between atoms: _189  and  _190
REMARK   77  A    between atoms: _189  and  _192
REMARK   78  A    between atoms: _192  and  _193
REMARK   79  A    between atoms: _199  and  _201
REMARK   80  A    between atoms: _201  and  _202
REMARK   81  A    between atoms: _201  and  _204
REMARK   82  A    between atoms: _204  and  _205
REMARK   83  A    between atoms: _209  and  _210
REMARK   84  A    between atoms: _215  and  _217
REMARK   85  A    between atoms: _217  and  _218
REMARK   86  A    between atoms: _217  and  _220
REMARK   87  A    between atoms: _220  and  _221
REMARK   88  A    between atoms: _223  and  _225
REMARK   89  A    between atoms: _225  and  _226
REMARK   90  A    between atoms: _225  and  _228
REMARK   91  A    between atoms: _228  and  _229
REMARK   92  A    between atoms: _229  and  _230
REMARK   93  A    between atoms: _230  and  _231
REMARK   94  A    between atoms: _240  and  _242
REMARK   95  A    between atoms: _242  and  _243
REMARK   96  A    between atoms: _242  and  _245
REMARK   97  A    between atoms: _245  and  _246
REMARK   98  A    between atoms: _246  and  _247
REMARK   99  A    between atoms: _247  and  _248
REMARK  100  A    between atoms: _257  and  _259
REMARK  101  A    between atoms: _259  and  _260
REMARK  102  A    between atoms: _259  and  _262
REMARK  103  A    between atoms: _262  and  _263
REMARK  104  A    between atoms: _266  and  _268
REMARK  105  A    between atoms: _268  and  _269
REMARK  106  A    between atoms: _268  and  _271
REMARK  107  A    between atoms: _271  and  _272
REMARK  108  A    between atoms: _277  and  _278
REMARK  109  A    between atoms: _280  and  _282
REMARK  110  A    between atoms: _282  and  _283
REMARK  111  A    between atoms: _282  and  _285
REMARK  112  A    between atoms: _285  and  _286
REMARK  113  A    between atoms: _291  and  _293
REMARK  114  A    between atoms: _293  and  _294
REMARK  115  A    between atoms: _293  and  _296
REMARK  116  A    between atoms: _296  and  _297
REMARK  117  A    between atoms: _300  and  _302
REMARK  118  A    between atoms: _302  and  _303
REMARK  119  A    between atoms: _302  and  _305
REMARK  120  A    between atoms: _307  and  _309
REMARK  121  A    between atoms: _309  and  _310
REMARK  122  A    between atoms: _309  and  _312
REMARK  123  A    between atoms: _312  and  _313
REMARK  124  A    between atoms: _313  and  _314
REMARK  125  A    between atoms: _319  and  _321
REMARK  126  A    between atoms: _321  and  _322
REMARK  127  A    between atoms: _321  and  _324
REMARK  128  A    between atoms: _324  and  _325
REMARK  129  A    between atoms: _325  and  _326
REMARK  130  A    between atoms: _329  and  _331
REMARK  131  A    between atoms: _331  and  _332
REMARK  132  A    between atoms: _334  and  _336
REMARK  133  A    between atoms: _336  and  _337
REMARK  134  A    between atoms: _336  and  _339
REMARK  135  A    between atoms: _339  and  _340
REMARK  136  A    between atoms: _345  and  _347
REMARK  137  A    between atoms: _347  and  _348
REMARK  138  A    between atoms: _347  and  _350
REMARK  139  A    between atoms: _350  and  _351
REMARK  140  A    between atoms: _354  and  _356
REMARK  141  A    between atoms: _356  and  _357
REMARK  142  A    between atoms: _356  and  _359
REMARK  143  A    between atoms: _359  and  _360
REMARK  144  A    between atoms: _363  and  _365
REMARK  145  A    between atoms: _365  and  _366
REMARK  146  A    between atoms: _365  and  _368
REMARK  147  A    between atoms: _368  and  _369
REMARK  148  A    between atoms: _369  and  _370
REMARK  149  A    between atoms: _372  and  _374
REMARK  150  A    between atoms: _374  and  _375
REMARK  151  A    between atoms: _374  and  _377
REMARK  152  A    between atoms: _377  and  _378
REMARK  153  A    between atoms: _381  and  _383
REMARK  154  A    between atoms: _383  and  _384
REMARK  155  A    between atoms: _383  and  _386
REMARK  156  A    between atoms: _386  and  _387
REMARK  157  A    between atoms: _390  and  _392
REMARK  158  A    between atoms: _392  and  _393
REMARK  159  A    between atoms: _392  and  _395
REMARK  160  A    between atoms: _395  and  _396
REMARK  161  A    between atoms: _396  and  _397
REMARK  162  A    between atoms: _400  and  _402
REMARK  163  A    between atoms: _402  and  _403
REMARK  164  A    between atoms: _402  and  _405
REMARK  165  A    between atoms: _405  and  _406
REMARK  166  A    between atoms: _411  and  _412
REMARK  167  A    between atoms: _414  and  _416
REMARK  168  A    between atoms: _416  and  _417
REMARK  169  A    between atoms: _416  and  _419
REMARK  170  A    between atoms: _419  and  _420
REMARK  171  A    between atoms: _426  and  _428
REMARK  172  A    between atoms: _428  and  _429
REMARK  173  A    between atoms: _428  and  _431
REMARK  174  A    between atoms: _431  and  _432
REMARK  175  A    between atoms: _437  and  _439
REMARK  176  A    between atoms: _439  and  _440
REMARK  177  A    between atoms: _439  and  _442
REMARK  178  A    between atoms: _442  and  _443
REMARK  179  A    between atoms: _443  and  _444
REMARK  180  A    between atoms: _447  and  _449
REMARK  181  A    between atoms: _449  and  _450
REMARK  182  A    between atoms: _449  and  _452
REMARK  183  A    between atoms: _452  and  _453
REMARK  184  A    between atoms: _458  and  _459
REMARK  185  A    between atoms: _461  and  _463
REMARK  186  A    between atoms: _463  and  _464
REMARK  187  A    between atoms: _463  and  _466
REMARK  188  A    between atoms: _466  and  _467
REMARK  189  A    between atoms: _470  and  _472
REMARK  190  A    between atoms: _472  and  _473
REMARK  191  A    between atoms: _472  and  _475
REMARK  192  A    between atoms: _475  and  _476
REMARK  193  A    between atoms: _481  and  _482
REMARK  194  A    between atoms: _484  and  _486
REMARK  195  A    between atoms: _486  and  _487
REMARK  196  A    between atoms: _486  and  _489
REMARK  197  A    between atoms: _489  and  _490
REMARK  198  A    between atoms: _493  and  _494
REMARK  199  A    between atoms: _499  and  _501
REMARK  200  A    between atoms: _501  and  _502
REMARK  201  A    between atoms: _501  and  _504
REMARK  202  A    between atoms: _504  and  _505
REMARK  203  A    between atoms: _511  and  _513
REMARK  204  A    between atoms: _513  and  _514
REMARK  205  A    between atoms: _513  and  _516
REMARK  206  A    between atoms: _516  and  _517
REMARK  207  A    between atoms: _523  and  _525
REMARK  208  A    between atoms: _525  and  _526
REMARK  209  A    between atoms: _525  and  _528
REMARK  210  A    between atoms: _528  and  _529
REMARK  211  A    between atoms: _531  and  _533
REMARK  212  A    between atoms: _533  and  _534
REMARK  213  A    between atoms: _533  and  _536
REMARK  214  A    between atoms: _536  and  _537
REMARK  215  A    between atoms: _540  and  _542
REMARK  216  A    between atoms: _542  and  _543
REMARK  217  A    between atoms: _542  and  _545
REMARK  218  A    between atoms: _545  and  _546
REMARK  219  A    between atoms: _556  and  _558
REMARK  220  A    between atoms: _558  and  _559
REMARK  221  A    between atoms: _561  and  _563
REMARK  222  A    between atoms: _563  and  _564
REMARK  223  A    between atoms: _563  and  _566
REMARK  224  A    between atoms: _566  and  _567
REMARK  225  A    between atoms: _577  and  _579
REMARK  226  A    between atoms: _579  and  _580
REMARK  227  A    between atoms: _579  and  _582
REMARK  228  A    between atoms: _582  and  _583
REMARK  229  A    between atoms: _585  and  _587
REMARK  230  A    between atoms: _587  and  _588
REMARK  231  A    between atoms: _587  and  _590
REMARK  232  A    between atoms: _590  and  _591
REMARK  233  A    between atoms: _591  and  _592
REMARK  234  A    between atoms: _597  and  _599
REMARK  235  A    between atoms: _599  and  _600
REMARK  236  A    between atoms: _599  and  _602
REMARK  237  A    between atoms: _602  and  _603
REMARK  238  A    between atoms: _605  and  _607
REMARK  239  A    between atoms: _607  and  _608
REMARK  240  A    between atoms: _607  and  _610
REMARK  241  A    between atoms: _610  and  _611
REMARK  242  A    between atoms: _614  and  _616
REMARK  243  A    between atoms: _616  and  _617
REMARK  244  A    between atoms: _616  and  _619
REMARK  245  A    between atoms: _619  and  _620
REMARK  246  A    between atoms: _620  and  _621
REMARK  247  A    between atoms: _624  and  _626
REMARK  248  A    between atoms: _626  and  _627
REMARK  249  A    between atoms: _626  and  _629
REMARK  250  A    between atoms: _629  and  _630
REMARK  251  A    between atoms: _636  and  _638
REMARK  252  A    between atoms: _638  and  _639
REMARK  253  A    between atoms: _641  and  _643
REMARK  254  A    between atoms: _643  and  _644
REMARK  255  A    between atoms: _643  and  _646
REMARK  256  A    between atoms: _646  and  _647
REMARK  257  A    between atoms: _652  and  _653
REMARK  258  A    between atoms: _655  and  _657
REMARK  259  A    between atoms: _657  and  _658
REMARK  260  A    between atoms: _657  and  _660
REMARK  261  A    between atoms: _660  and  _661
REMARK  262  A    between atoms: _666  and  _667
REMARK  263  A    between atoms: _669  and  _671
REMARK  264  A    between atoms: _671  and  _672
REMARK  265  A    between atoms: _671  and  _674
REMARK  266  A    between atoms: _674  and  _675
REMARK  267  A    between atoms: _675  and  _676
REMARK  268  A    between atoms: _676  and  _677
REMARK                            x       y       z     vdW  Elec       q    Type
REMARK                         _______ _______ _______ _____ _____    ______ ____
ROOT
ATOM      1  O   HOH     1     -20.719  13.195  -7.925  0.00  0.00    +0.000 OA
ENDROOT
TORSDOF 0
REMARK  Name = ../refined-set-2016/3zm9/3zm9_pocket.pdb
REMARK  268 active torsions:
REMARK  status: ('A' for Active; 'I' for Inactive)
REMARK    1  A    between atoms: _1  and  _3
REMARK    2  A    between atoms: _3  and  _4
REMARK    3  A    between atoms: _3  and  _6
REMARK    4  A    between atoms: _6  and  _7
REMARK    5  A    between atoms: _10  and  _12
REMARK    6  A    between atoms: _12  and  _13
REMARK    7  A    between atoms: _12  and  _15
REMARK    8  A    between atoms: _15  and  _16
REMARK    9  A    between atoms: _16  and  _17
REMARK   10  A    between atoms: _17  and  _18
REMARK   11  A    between atoms: _27  and  _29
REMARK   12  A    between atoms: _29  and  _30
REMARK   13  A    between atoms: _29  and  _32
REMARK   14  A    between atoms: _32  and  _33
REMARK   15  A    between atoms: _38  and  _40
REMARK   16  A    between atoms: _40  and  _41
REMARK   17  A    between atoms: _40  and  _43
REMARK   18  A    between atoms: _43  and  _44
REMARK   19  A    between atoms: _47  and  _49
REMARK   20  A    between atoms: _49  and  _50
REMARK   21  A    between atoms: _49  and  _52
REMARK   22  A    between atoms: _52  and  _53
REMARK   23  A    between atoms: _53  and  _54
REMARK   24  A    between atoms: _59  and  _61
REMARK   25  A    between atoms: _61  and  _62
REMARK   26  A    between atoms: _61  and  _64
REMARK   27  A    between atoms: _67  and  _69
REMARK   28  A    between atoms: _69  and  _70
REMARK   29  A    between atoms: _69  and  _72
REMARK   30  A    between atoms: _72  and  _73
REMARK   31  A    between atoms: _76  and  _78
REMARK   32  A    between atoms: _78  and  _79
REMARK   33  A    between atoms: _78  and  _81
REMARK   34  A    between atoms: _81  and  _82
REMARK   35  A    between atoms: _85  and  _87
REMARK   36  A    between atoms: _87  and  _88
REMARK   37  A    between atoms: _87  and  _90
REMARK   38  A    between atoms: _90  and  _91
REMARK   39  A    between atoms: _91  and  _92
REMARK   40  A    between atoms: _92  and  _93
REMARK   41  A    between atoms: _102  and  _104
REMARK   42  A    between atoms: _104  and  _105
REMARK   43  A    between atoms: _104  and  _107
REMARK   44  A    between atoms: _107  and  _108
REMARK   45  A    between atoms: _114  and  _116
REMARK   46  A    between atoms: _116  and  _117
REMARK   47  A    between atoms: _120  and  _121
REMARK   48  A    between atoms: _126  and  _128
REMARK   49  A    between atoms: _128  and  _129
REMARK   50  A    between atoms: _128  and  _131
REMARK   51  A    between atoms: _131  and  _132
REMARK   52  A    between atoms: _132  and  _133
REMARK   53  A    between atoms: _133  and  _134
REMARK   54  A    between atoms: _134  and  _135
REMARK   55  A    between atoms: _139  and  _141
REMARK   56  A    between atoms: _141  and  _142
REMARK   57  A    between atoms: _141  and  _144
REMARK   58  A    between atoms: _144  and  _145
REMARK   59  A    between atoms: _145  and  _146
REMARK   60  A    between atoms: _146  and  _147
REMARK   61  A    between atoms: _156  and  _158
REMARK   62  A    between atoms: _158  and  _159
REMARK   63  A    between atoms: _158  and  _161
REMARK   64  A    between atoms: _161  and  _162
REMARK   65  A    between atoms: _165  and  _167
REMARK   66  A    between atoms: _167  and  _168
REMARK   67  A    between atoms: _167  and  _170
REMARK   68  A    between atoms: _170  and  _171
REMARK   69  A    between atoms: _171  and  _172
REMARK   70  A    between atoms: _175  and  _177
REMARK   71  A    between atoms: _177  and  _178
REMARK   72  A    between atoms: _177  and  _180
REMARK   73  A    between atoms: _180  and  _181
REMARK   74  A    between atoms: _181  and  _182
REMARK   75  A    between atoms: _187  and  _189
REMARK   76  A    between atoms: _189  and  _190
REMARK   77  A    between atoms: _189  and  _192
REMARK   78  A    between atoms: _192  and  _193
REMARK   79  A    between atoms: _199  and  _201
REMARK   80  A    between atoms: _201  and  _202
REMARK   81  A    between atoms: _201  and  _204
REMARK   82  A    between atoms: _204  and  _205
REMARK   83  A    between atoms: _209  and  _210
REMARK   84  A    between atoms: _215  and  _217
REMARK   85  A    between atoms: _217  and  _218
REMARK   86  A    between atoms: _217  and  _220
REMARK   87  A    between atoms: _220  and  _221
REMARK   88  A    between atoms: _223  and  _225
REMARK   89  A    between atoms: _225  and  _226
REMARK   90  A    between atoms: _225  and  _228
REMARK   91  A    between atoms: _228  and  _229
REMARK   92  A    between atoms: _229  and  _230
REMARK   93  A    between atoms: _230  and  _231
REMARK   94  A    between atoms: _240  and  _242
REMARK   95  A    between atoms: _242  and  _243
REMARK   96  A    between atoms: _242  and  _245
REMARK   97  A    between atoms: _245  and  _246
REMARK   98  A    between atoms: _246  and  _247
REMARK   99  A    between atoms: _247  and  _248
REMARK  100  A    between atoms: _257  and  _259
REMARK  101  A    between atoms: _259  and  _260
REMARK  102  A    between atoms: _259  and  _262
REMARK  103  A    between atoms: _262  and  _263
REMARK  104  A    between atoms: _266  and  _268
REMARK  105  A    between atoms: _268  and  _269
REMARK  106  A    between atoms: _268  and  _271
REMARK  107  A    between atoms: _271  and  _272
REMARK  108  A    between atoms: _277  and  _278
REMARK  109  A    between atoms: _280  and  _282
REMARK  110  A    between atoms: _282  and  _283
REMARK  111  A    between atoms: _282  and  _285
REMARK  112  A    between atoms: _285  and  _286
REMARK  113  A    between atoms: _291  and  _293
REMARK  114  A    between atoms: _293  and  _294
REMARK  115  A    between atoms: _293  and  _296
REMARK  116  A    between atoms: _296  and  _297
REMARK  117  A    between atoms: _300  and  _302
REMARK  118  A    between atoms: _302  and  _303
REMARK  119  A    between atoms: _302  and  _305
REMARK  120  A    between atoms: _307  and  _309
REMARK  121  A    between atoms: _309  and  _310
REMARK  122  A    between atoms: _309  and  _312
REMARK  123  A    between atoms: _312  and  _313
REMARK  124  A    between atoms: _313  and  _314
REMARK  125  A    between atoms: _319  and  _321
REMARK  126  A    between atoms: _321  and  _322
REMARK  127  A    between atoms: _321  and  _324
REMARK  128  A    between atoms: _324  and  _325
REMARK  129  A    between atoms: _325  and  _326
REMARK  130  A    between atoms: _329  and  _331
REMARK  131  A    between atoms: _331  and  _332
REMARK  132  A    between atoms: _334  and  _336
REMARK  133  A    between atoms: _336  and  _337
REMARK  134  A    between atoms: _336  and  _339
REMARK  135  A    between atoms: _339  and  _340
REMARK  136  A    between atoms: _345  and  _347
REMARK  137  A    between atoms: _347  and  _348
REMARK  138  A    between atoms: _347  and  _350
REMARK  139  A    between atoms: _350  and  _351
REMARK  140  A    between atoms: _354  and  _356
REMARK  141  A    between atoms: _356  and  _357
REMARK  142  A    between atoms: _356  and  _359
REMARK  143  A    between atoms: _359  and  _360
REMARK  144  A    between atoms: _363  and  _365
REMARK  145  A    between atoms: _365  and  _366
REMARK  146  A    between atoms: _365  and  _368
REMARK  147  A    between atoms: _368  and  _369
REMARK  148  A    between atoms: _369  and  _370
REMARK  149  A    between atoms: _372  and  _374
REMARK  150  A    between atoms: _374  and  _375
REMARK  151  A    between atoms: _374  and  _377
REMARK  152  A    between atoms: _377  and  _378
REMARK  153  A    between atoms: _381  and  _383
REMARK  154  A    between atoms: _383  and  _384
REMARK  155  A    between atoms: _383  and  _386
REMARK  156  A    between atoms: _386  and  _387
REMARK  157  A    between atoms: _390  and  _392
REMARK  158  A    between atoms: _392  and  _393
REMARK  159  A    between atoms: _392  and  _395
REMARK  160  A    between atoms: _395  and  _396
REMARK  161  A    between atoms: _396  and  _397
REMARK  162  A    between atoms: _400  and  _402
REMARK  163  A    between atoms: _402  and  _403
REMARK  164  A    between atoms: _402  and  _405
REMARK  165  A    between atoms: _405  and  _406
REMARK  166  A    between atoms: _411  and  _412
REMARK  167  A    between atoms: _414  and  _416
REMARK  168  A    between atoms: _416  and  _417
REMARK  169  A    between atoms: _416  and  _419
REMARK  170  A    between atoms: _419  and  _420
REMARK  171  A    between atoms: _426  and  _428
REMARK  172  A    between atoms: _428  and  _429
REMARK  173  A    between atoms: _428  and  _431
REMARK  174  A    between atoms: _431  and  _432
REMARK  175  A    between atoms: _437  and  _439
REMARK  176  A    between atoms: _439  and  _440
REMARK  177  A    between atoms: _439  and  _442
REMARK  178  A    between atoms: _442  and  _443
REMARK  179  A    between atoms: _443  and  _444
REMARK  180  A    between atoms: _447  and  _449
REMARK  181  A    between atoms: _449  and  _450
REMARK  182  A    between atoms: _449  and  _452
REMARK  183  A    between atoms: _452  and  _453
REMARK  184  A    between atoms: _458  and  _459
REMARK  185  A    between atoms: _461  and  _463
REMARK  186  A    between atoms: _463  and  _464
REMARK  187  A    between atoms: _463  and  _466
REMARK  188  A    between atoms: _466  and  _467
REMARK  189  A    between atoms: _470  and  _472
REMARK  190  A    between atoms: _472  and  _473
REMARK  191  A    between atoms: _472  and  _475
REMARK  192  A    between atoms: _475  and  _476
REMARK  193  A    between atoms: _481  and  _482
REMARK  194  A    between atoms: _484  and  _486
REMARK  195  A    between atoms: _486  and  _487
REMARK  196  A    between atoms: _486  and  _489
REMARK  197  A    between atoms: _489  and  _490
REMARK  198  A    between atoms: _493  and  _494
REMARK  199  A    between atoms: _499  and  _501
REMARK  200  A    between atoms: _501  and  _502
REMARK  201  A    between atoms: _501  and  _504
REMARK  202  A    between atoms: _504  and  _505
REMARK  203  A    between atoms: _511  and  _513
REMARK  204  A    between atoms: _513  and  _514
REMARK  205  A    between atoms: _513  and  _516
REMARK  206  A    between atoms: _516  and  _517
REMARK  207  A    between atoms: _523  and  _525
REMARK  208  A    between atoms: _525  and  _526
REMARK  209  A    between atoms: _525  and  _528
REMARK  210  A    between atoms: _528  and  _529
REMARK  211  A    between atoms: _531  and  _533
REMARK  212  A    between atoms: _533  and  _534
REMARK  213  A    between atoms: _533  and  _536
REMARK  214  A    between atoms: _536  and  _537
REMARK  215  A    between atoms: _540  and  _542
REMARK  216  A    between atoms: _542  and  _543
REMARK  217  A    between atoms: _542  and  _545
REMARK  218  A    between atoms: _545  and  _546
REMARK  219  A    between atoms: _556  and  _558
REMARK  220  A    between atoms: _558  and  _559
REMARK  221  A    between atoms: _561  and  _563
REMARK  222  A    between atoms: _563  and  _564
REMARK  223  A    between atoms: _563  and  _566
REMARK  224  A    between atoms: _566  and  _567
REMARK  225  A    between atoms: _577  and  _579
REMARK  226  A    between atoms: _579  and  _580
REMARK  227  A    between atoms: _579  and  _582
REMARK  228  A    between atoms: _582  and  _583
REMARK  229  A    between atoms: _585  and  _587
REMARK  230  A    between atoms: _587  and  _588
REMARK  231  A    between atoms: _587  and  _590
REMARK  232  A    between atoms: _590  and  _591
REMARK  233  A    between atoms: _591  and  _592
REMARK  234  A    between atoms: _597  and  _599
REMARK  235  A    between atoms: _599  and  _600
REMARK  236  A    between atoms: _599  and  _602
REMARK  237  A    between atoms: _602  and  _603
REMARK  238  A    between atoms: _605  and  _607
REMARK  239  A    between atoms: _607  and  _608
REMARK  240  A    between atoms: _607  and  _610
REMARK  241  A    between atoms: _610  and  _611
REMARK  242  A    between atoms: _614  and  _616
REMARK  243  A    between atoms: _616  and  _617
REMARK  244  A    between atoms: _616  and  _619
REMARK  245  A    between atoms: _619  and  _620
REMARK  246  A    between atoms: _620  and  _621
REMARK  247  A    between atoms: _624  and  _626
REMARK  248  A    between atoms: _626  and  _627
REMARK  249  A    between atoms: _626  and  _629
REMARK  250  A    between atoms: _629  and  _630
REMARK  251  A    between atoms: _636  and  _638
REMARK  252  A    between atoms: _638  and  _639
REMARK  253  A    between atoms: _641  and  _643
REMARK  254  A    between atoms: _643  and  _644
REMARK  255  A    between atoms: _643  and  _646
REMARK  256  A    between atoms: _646  and  _647
REMARK  257  A    between atoms: _652  and  _653
REMARK  258  A    between atoms: _655  and  _657
REMARK  259  A    between atoms: _657  and  _658
REMARK  260  A    between atoms: _657  and  _660
REMARK  261  A    between atoms: _660  and  _661
REMARK  262  A    between atoms: _666  and  _667
REMARK  263  A    between atoms: _669  and  _671
REMARK  264  A    between atoms: _671  and  _672
REMARK  265  A    between atoms: _671  and  _674
REMARK  266  A    between atoms: _674  and  _675
REMARK  267  A    between atoms: _675  and  _676
REMARK  268  A    between atoms: _676  and  _677
REMARK                            x       y       z     vdW  Elec       q    Type
REMARK                         _______ _______ _______ _____ _____    ______ ____
ROOT
ATOM      1  O   HOH     1     -18.201  16.175  -9.353  0.00  0.00    +0.000 OA
ENDROOT
TORSDOF 0
REMARK  Name = ../refined-set-2016/3zm9/3zm9_pocket.pdb
REMARK  268 active torsions:
REMARK  status: ('A' for Active; 'I' for Inactive)
REMARK    1  A    between atoms: _1  and  _3
REMARK    2  A    between atoms: _3  and  _4
REMARK    3  A    between atoms: _3  and  _6
REMARK    4  A    between atoms: _6  and  _7
REMARK    5  A    between atoms: _10  and  _12
REMARK    6  A    between atoms: _12  and  _13
REMARK    7  A    between atoms: _12  and  _15
REMARK    8  A    between atoms: _15  and  _16
REMARK    9  A    between atoms: _16  and  _17
REMARK   10  A    between atoms: _17  and  _18
REMARK   11  A    between atoms: _27  and  _29
REMARK   12  A    between atoms: _29  and  _30
REMARK   13  A    between atoms: _29  and  _32
REMARK   14  A    between atoms: _32  and  _33
REMARK   15  A    between atoms: _38  and  _40
REMARK   16  A    between atoms: _40  and  _41
REMARK   17  A    between atoms: _40  and  _43
REMARK   18  A    between atoms: _43  and  _44
REMARK   19  A    between atoms: _47  and  _49
REMARK   20  A    between atoms: _49  and  _50
REMARK   21  A    between atoms: _49  and  _52
REMARK   22  A    between atoms: _52  and  _53
REMARK   23  A    between atoms: _53  and  _54
REMARK   24  A    between atoms: _59  and  _61
REMARK   25  A    between atoms: _61  and  _62
REMARK   26  A    between atoms: _61  and  _64
REMARK   27  A    between atoms: _67  and  _69
REMARK   28  A    between atoms: _69  and  _70
REMARK   29  A    between atoms: _69  and  _72
REMARK   30  A    between atoms: _72  and  _73
REMARK   31  A    between atoms: _76  and  _78
REMARK   32  A    between atoms: _78  and  _79
REMARK   33  A    between atoms: _78  and  _81
REMARK   34  A    between atoms: _81  and  _82
REMARK   35  A    between atoms: _85  and  _87
REMARK   36  A    between atoms: _87  and  _88
REMARK   37  A    between atoms: _87  and  _90
REMARK   38  A    between atoms: _90  and  _91
REMARK   39  A    between atoms: _91  and  _92
REMARK   40  A    between atoms: _92  and  _93
REMARK   41  A    between atoms: _102  and  _104
REMARK   42  A    between atoms: _104  and  _105
REMARK   43  A    between atoms: _104  and  _107
REMARK   44  A    between atoms: _107  and  _108
REMARK   45  A    between atoms: _114  and  _116
REMARK   46  A    between atoms: _116  and  _117
REMARK   47  A    between atoms: _120  and  _121
REMARK   48  A    between atoms: _126  and  _128
REMARK   49  A    between atoms: _128  and  _129
REMARK   50  A    between atoms: _128  and  _131
REMARK   51  A    between atoms: _131  and  _132
REMARK   52  A    between atoms: _132  and  _133
REMARK   53  A    between atoms: _133  and  _134
REMARK   54  A    between atoms: _134  and  _135
REMARK   55  A    between atoms: _139  and  _141
REMARK   56  A    between atoms: _141  and  _142
REMARK   57  A    between atoms: _141  and  _144
REMARK   58  A    between atoms: _144  and  _145
REMARK   59  A    between atoms: _145  and  _146
REMARK   60  A    between atoms: _146  and  _147
REMARK   61  A    between atoms: _156  and  _158
REMARK   62  A    between atoms: _158  and  _159
REMARK   63  A    between atoms: _158  and  _161
REMARK   64  A    between atoms: _161  and  _162
REMARK   65  A    between atoms: _165  and  _167
REMARK   66  A    between atoms: _167  and  _168
REMARK   67  A    between atoms: _167  and  _170
REMARK   68  A    between atoms: _170  and  _171
REMARK   69  A    between atoms: _171  and  _172
REMARK   70  A    between atoms: _175  and  _177
REMARK   71  A    between atoms: _177  and  _178
REMARK   72  A    between atoms: _177  and  _180
REMARK   73  A    between atoms: _180  and  _181
REMARK   74  A    between atoms: _181  and  _182
REMARK   75  A    between atoms: _187  and  _189
REMARK   76  A    between atoms: _189  and  _190
REMARK   77  A    between atoms: _189  and  _192
REMARK   78  A    between atoms: _192  and  _193
REMARK   79  A    between atoms: _199  and  _201
REMARK   80  A    between atoms: _201  and  _202
REMARK   81  A    between atoms: _201  and  _204
REMARK   82  A    between atoms: _204  and  _205
REMARK   83  A    between atoms: _209  and  _210
REMARK   84  A    between atoms: _215  and  _217
REMARK   85  A    between atoms: _217  and  _218
REMARK   86  A    between atoms: _217  and  _220
REMARK   87  A    between atoms: _220  and  _221
REMARK   88  A    between atoms: _223  and  _225
REMARK   89  A    between atoms: _225  and  _226
REMARK   90  A    between atoms: _225  and  _228
REMARK   91  A    between atoms: _228  and  _229
REMARK   92  A    between atoms: _229  and  _230
REMARK   93  A    between atoms: _230  and  _231
REMARK   94  A    between atoms: _240  and  _242
REMARK   95  A    between atoms: _242  and  _243
REMARK   96  A    between atoms: _242  and  _245
REMARK   97  A    between atoms: _245  and  _246
REMARK   98  A    between atoms: _246  and  _247
REMARK   99  A    between atoms: _247  and  _248
REMARK  100  A    between atoms: _257  and  _259
REMARK  101  A    between atoms: _259  and  _260
REMARK  102  A    between atoms: _259  and  _262
REMARK  103  A    between atoms: _262  and  _263
REMARK  104  A    between atoms: _266  and  _268
REMARK  105  A    between atoms: _268  and  _269
REMARK  106  A    between atoms: _268  and  _271
REMARK  107  A    between atoms: _271  and  _272
REMARK  108  A    between atoms: _277  and  _278
REMARK  109  A    between atoms: _280  and  _282
REMARK  110  A    between atoms: _282  and  _283
REMARK  111  A    between atoms: _282  and  _285
REMARK  112  A    between atoms: _285  and  _286
REMARK  113  A    between atoms: _291  and  _293
REMARK  114  A    between atoms: _293  and  _294
REMARK  115  A    between atoms: _293  and  _296
REMARK  116  A    between atoms: _296  and  _297
REMARK  117  A    between atoms: _300  and  _302
REMARK  118  A    between atoms: _302  and  _303
REMARK  119  A    between atoms: _302  and  _305
REMARK  120  A    between atoms: _307  and  _309
REMARK  121  A    between atoms: _309  and  _310
REMARK  122  A    between atoms: _309  and  _312
REMARK  123  A    between atoms: _312  and  _313
REMARK  124  A    between atoms: _313  and  _314
REMARK  125  A    between atoms: _319  and  _321
REMARK  126  A    between atoms: _321  and  _322
REMARK  127  A    between atoms: _321  and  _324
REMARK  128  A    between atoms: _324  and  _325
REMARK  129  A    between atoms: _325  and  _326
REMARK  130  A    between atoms: _329  and  _331
REMARK  131  A    between atoms: _331  and  _332
REMARK  132  A    between atoms: _334  and  _336
REMARK  133  A    between atoms: _336  and  _337
REMARK  134  A    between atoms: _336  and  _339
REMARK  135  A    between atoms: _339  and  _340
REMARK  136  A    between atoms: _345  and  _347
REMARK  137  A    between atoms: _347  and  _348
REMARK  138  A    between atoms: _347  and  _350
REMARK  139  A    between atoms: _350  and  _351
REMARK  140  A    between atoms: _354  and  _356
REMARK  141  A    between atoms: _356  and  _357
REMARK  142  A    between atoms: _356  and  _359
REMARK  143  A    between atoms: _359  and  _360
REMARK  144  A    between atoms: _363  and  _365
REMARK  145  A    between atoms: _365  and  _366
REMARK  146  A    between atoms: _365  and  _368
REMARK  147  A    between atoms: _368  and  _369
REMARK  148  A    between atoms: _369  and  _370
REMARK  149  A    between atoms: _372  and  _374
REMARK  150  A    between atoms: _374  and  _375
REMARK  151  A    between atoms: _374  and  _377
REMARK  152  A    between atoms: _377  and  _378
REMARK  153  A    between atoms: _381  and  _383
REMARK  154  A    between atoms: _383  and  _384
REMARK  155  A    between atoms: _383  and  _386
REMARK  156  A    between atoms: _386  and  _387
REMARK  157  A    between atoms: _390  and  _392
REMARK  158  A    between atoms: _392  and  _393
REMARK  159  A    between atoms: _392  and  _395
REMARK  160  A    between atoms: _395  and  _396
REMARK  161  A    between atoms: _396  and  _397
REMARK  162  A    between atoms: _400  and  _402
REMARK  163  A    between atoms: _402  and  _403
REMARK  164  A    between atoms: _402  and  _405
REMARK  165  A    between atoms: _405  and  _406
REMARK  166  A    between atoms: _411  and  _412
REMARK  167  A    between atoms: _414  and  _416
REMARK  168  A    between atoms: _416  and  _417
REMARK  169  A    between atoms: _416  and  _419
REMARK  170  A    between atoms: _419  and  _420
REMARK  171  A    between atoms: _426  and  _428
REMARK  172  A    between atoms: _428  and  _429
REMARK  173  A    between atoms: _428  and  _431
REMARK  174  A    between atoms: _431  and  _432
REMARK  175  A    between atoms: _437  and  _439
REMARK  176  A    between atoms: _439  and  _440
REMARK  177  A    between atoms: _439  and  _442
REMARK  178  A    between atoms: _442  and  _443
REMARK  179  A    between atoms: _443  and  _444
REMARK  180  A    between atoms: _447  and  _449
REMARK  181  A    between atoms: _449  and  _450
REMARK  182  A    between atoms: _449  and  _452
REMARK  183  A    between atoms: _452  and  _453
REMARK  184  A    between atoms: _458  and  _459
REMARK  185  A    between atoms: _461  and  _463
REMARK  186  A    between atoms: _463  and  _464
REMARK  187  A    between atoms: _463  and  _466
REMARK  188  A    between atoms: _466  and  _467
REMARK  189  A    between atoms: _470  and  _472
REMARK  190  A    between atoms: _472  and  _473
REMARK  191  A    between atoms: _472  and  _475
REMARK  192  A    between atoms: _475  and  _476
REMARK  193  A    between atoms: _481  and  _482
REMARK  194  A    between atoms: _484  and  _486
REMARK  195  A    between atoms: _486  and  _487
REMARK  196  A    between atoms: _486  and  _489
REMARK  197  A    between atoms: _489  and  _490
REMARK  198  A    between atoms: _493  and  _494
REMARK  199  A    between atoms: _499  and  _501
REMARK  200  A    between atoms: _501  and  _502
REMARK  201  A    between atoms: _501  and  _504
REMARK  202  A    between atoms: _504  and  _505
REMARK  203  A    between atoms: _511  and  _513
REMARK  204  A    between atoms: _513  and  _514
REMARK  205  A    between atoms: _513  and  _516
REMARK  206  A    between atoms: _516  and  _517
REMARK  207  A    between atoms: _523  and  _525
REMARK  208  A    between atoms: _525  and  _526
REMARK  209  A    between atoms: _525  and  _528
REMARK  210  A    between atoms: _528  and  _529
REMARK  211  A    between atoms: _531  and  _533
REMARK  212  A    between atoms: _533  and  _534
REMARK  213  A    between atoms: _533  and  _536
REMARK  214  A    between atoms: _536  and  _537
REMARK  215  A    between atoms: _540  and  _542
REMARK  216  A    between atoms: _542  and  _543
REMARK  217  A    between atoms: _542  and  _545
REMARK  218  A    between atoms: _545  and  _546
REMARK  219  A    between atoms: _556  and  _558
REMARK  220  A    between atoms: _558  and  _559
REMARK  221  A    between atoms: _561  and  _563
REMARK  222  A    between atoms: _563  and  _564
REMARK  223  A    between atoms: _563  and  _566
REMARK  224  A    between atoms: _566  and  _567
REMARK  225  A    between atoms: _577  and  _579
REMARK  226  A    between atoms: _579  and  _580
REMARK  227  A    between atoms: _579  and  _582
REMARK  228  A    between atoms: _582  and  _583
REMARK  229  A    between atoms: _585  and  _587
REMARK  230  A    between atoms: _587  and  _588
REMARK  231  A    between atoms: _587  and  _590
REMARK  232  A    between atoms: _590  and  _591
REMARK  233  A    between atoms: _591  and  _592
REMARK  234  A    between atoms: _597  and  _599
REMARK  235  A    between atoms: _599  and  _600
REMARK  236  A    between atoms: _599  and  _602
REMARK  237  A    between atoms: _602  and  _603
REMARK  238  A    between atoms: _605  and  _607
REMARK  239  A    between atoms: _607  and  _608
REMARK  240  A    between atoms: _607  and  _610
REMARK  241  A    between atoms: _610  and  _611
REMARK  242  A    between atoms: _614  and  _616
REMARK  243  A    between atoms: _616  and  _617
REMARK  244  A    between atoms: _616  and  _619
REMARK  245  A    between atoms: _619  and  _620
REMARK  246  A    between atoms: _620  and  _621
REMARK  247  A    between atoms: _624  and  _626
REMARK  248  A    between atoms: _626  and  _627
REMARK  249  A    between atoms: _626  and  _629
REMARK  250  A    between atoms: _629  and  _630
REMARK  251  A    between atoms: _636  and  _638
REMARK  252  A    between atoms: _638  and  _639
REMARK  253  A    between atoms: _641  and  _643
REMARK  254  A    between atoms: _643  and  _644
REMARK  255  A    between atoms: _643  and  _646
REMARK  256  A    between atoms: _646  and  _647
REMARK  257  A    between atoms: _652  and  _653
REMARK  258  A    between atoms: _655  and  _657
REMARK  259  A    between atoms: _657  and  _658
REMARK  260  A    between atoms: _657  and  _660
REMARK  261  A    between atoms: _660  and  _661
REMARK  262  A    between atoms: _666  and  _667
REMARK  263  A    between atoms: _669  and  _671
REMARK  264  A    between atoms: _671  and  _672
REMARK  265  A    between atoms: _671  and  _674
REMARK  266  A    between atoms: _674  and  _675
REMARK  267  A    between atoms: _675  and  _676
REMARK  268  A    between atoms: _676  and  _677
REMARK                            x       y       z     vdW  Elec       q    Type
REMARK                         _______ _______ _______ _____ _____    ______ ____
ROOT
ATOM      1  O   HOH     1     -19.030  15.948  -4.882  0.00  0.00    +0.000 OA
ENDROOT
TORSDOF 0
REMARK  Name = ../refined-set-2016/3zm9/3zm9_pocket.pdb
REMARK  268 active torsions:
REMARK  status: ('A' for Active; 'I' for Inactive)
REMARK    1  A    between atoms: _1  and  _3
REMARK    2  A    between atoms: _3  and  _4
REMARK    3  A    between atoms: _3  and  _6
REMARK    4  A    between atoms: _6  and  _7
REMARK    5  A    between atoms: _10  and  _12
REMARK    6  A    between atoms: _12  and  _13
REMARK    7  A    between atoms: _12  and  _15
REMARK    8  A    between atoms: _15  and  _16
REMARK    9  A    between atoms: _16  and  _17
REMARK   10  A    between atoms: _17  and  _18
REMARK   11  A    between atoms: _27  and  _29
REMARK   12  A    between atoms: _29  and  _30
REMARK   13  A    between atoms: _29  and  _32
REMARK   14  A    between atoms: _32  and  _33
REMARK   15  A    between atoms: _38  and  _40
REMARK   16  A    between atoms: _40  and  _41
REMARK   17  A    between atoms: _40  and  _43
REMARK   18  A    between atoms: _43  and  _44
REMARK   19  A    between atoms: _47  and  _49
REMARK   20  A    between atoms: _49  and  _50
REMARK   21  A    between atoms: _49  and  _52
REMARK   22  A    between atoms: _52  and  _53
REMARK   23  A    between atoms: _53  and  _54
REMARK   24  A    between atoms: _59  and  _61
REMARK   25  A    between atoms: _61  and  _62
REMARK   26  A    between atoms: _61  and  _64
REMARK   27  A    between atoms: _67  and  _69
REMARK   28  A    between atoms: _69  and  _70
REMARK   29  A    between atoms: _69  and  _72
REMARK   30  A    between atoms: _72  and  _73
REMARK   31  A    between atoms: _76  and  _78
REMARK   32  A    between atoms: _78  and  _79
REMARK   33  A    between atoms: _78  and  _81
REMARK   34  A    between atoms: _81  and  _82
REMARK   35  A    between atoms: _85  and  _87
REMARK   36  A    between atoms: _87  and  _88
REMARK   37  A    between atoms: _87  and  _90
REMARK   38  A    between atoms: _90  and  _91
REMARK   39  A    between atoms: _91  and  _92
REMARK   40  A    between atoms: _92  and  _93
REMARK   41  A    between atoms: _102  and  _104
REMARK   42  A    between atoms: _104  and  _105
REMARK   43  A    between atoms: _104  and  _107
REMARK   44  A    between atoms: _107  and  _108
REMARK   45  A    between atoms: _114  and  _116
REMARK   46  A    between atoms: _116  and  _117
REMARK   47  A    between atoms: _120  and  _121
REMARK   48  A    between atoms: _126  and  _128
REMARK   49  A    between atoms: _128  and  _129
REMARK   50  A    between atoms: _128  and  _131
REMARK   51  A    between atoms: _131  and  _132
REMARK   52  A    between atoms: _132  and  _133
REMARK   53  A    between atoms: _133  and  _134
REMARK   54  A    between atoms: _134  and  _135
REMARK   55  A    between atoms: _139  and  _141
REMARK   56  A    between atoms: _141  and  _142
REMARK   57  A    between atoms: _141  and  _144
REMARK   58  A    between atoms: _144  and  _145
REMARK   59  A    between atoms: _145  and  _146
REMARK   60  A    between atoms: _146  and  _147
REMARK   61  A    between atoms: _156  and  _158
REMARK   62  A    between atoms: _158  and  _159
REMARK   63  A    between atoms: _158  and  _161
REMARK   64  A    between atoms: _161  and  _162
REMARK   65  A    between atoms: _165  and  _167
REMARK   66  A    between atoms: _167  and  _168
REMARK   67  A    between atoms: _167  and  _170
REMARK   68  A    between atoms: _170  and  _171
REMARK   69  A    between atoms: _171  and  _172
REMARK   70  A    between atoms: _175  and  _177
REMARK   71  A    between atoms: _177  and  _178
REMARK   72  A    between atoms: _177  and  _180
REMARK   73  A    between atoms: _180  and  _181
REMARK   74  A    between atoms: _181  and  _182
REMARK   75  A    between atoms: _187  and  _189
REMARK   76  A    between atoms: _189  and  _190
REMARK   77  A    between atoms: _189  and  _192
REMARK   78  A    between atoms: _192  and  _193
REMARK   79  A    between atoms: _199  and  _201
REMARK   80  A    between atoms: _201  and  _202
REMARK   81  A    between atoms: _201  and  _204
REMARK   82  A    between atoms: _204  and  _205
REMARK   83  A    between atoms: _209  and  _210
REMARK   84  A    between atoms: _215  and  _217
REMARK   85  A    between atoms: _217  and  _218
REMARK   86  A    between atoms: _217  and  _220
REMARK   87  A    between atoms: _220  and  _221
REMARK   88  A    between atoms: _223  and  _225
REMARK   89  A    between atoms: _225  and  _226
REMARK   90  A    between atoms: _225  and  _228
REMARK   91  A    between atoms: _228  and  _229
REMARK   92  A    between atoms: _229  and  _230
REMARK   93  A    between atoms: _230  and  _231
REMARK   94  A    between atoms: _240  and  _242
REMARK   95  A    between atoms: _242  and  _243
REMARK   96  A    between atoms: _242  and  _245
REMARK   97  A    between atoms: _245  and  _246
REMARK   98  A    between atoms: _246  and  _247
REMARK   99  A    between atoms: _247  and  _248
REMARK  100  A    between atoms: _257  and  _259
REMARK  101  A    between atoms: _259  and  _260
REMARK  102  A    between atoms: _259  and  _262
REMARK  103  A    between atoms: _262  and  _263
REMARK  104  A    between atoms: _266  and  _268
REMARK  105  A    between atoms: _268  and  _269
REMARK  106  A    between atoms: _268  and  _271
REMARK  107  A    between atoms: _271  and  _272
REMARK  108  A    between atoms: _277  and  _278
REMARK  109  A    between atoms: _280  and  _282
REMARK  110  A    between atoms: _282  and  _283
REMARK  111  A    between atoms: _282  and  _285
REMARK  112  A    between atoms: _285  and  _286
REMARK  113  A    between atoms: _291  and  _293
REMARK  114  A    between atoms: _293  and  _294
REMARK  115  A    between atoms: _293  and  _296
REMARK  116  A    between atoms: _296  and  _297
REMARK  117  A    between atoms: _300  and  _302
REMARK  118  A    between atoms: _302  and  _303
REMARK  119  A    between atoms: _302  and  _305
REMARK  120  A    between atoms: _307  and  _309
REMARK  121  A    between atoms: _309  and  _310
REMARK  122  A    between atoms: _309  and  _312
REMARK  123  A    between atoms: _312  and  _313
REMARK  124  A    between atoms: _313  and  _314
REMARK  125  A    between atoms: _319  and  _321
REMARK  126  A    between atoms: _321  and  _322
REMARK  127  A    between atoms: _321  and  _324
REMARK  128  A    between atoms: _324  and  _325
REMARK  129  A    between atoms: _325  and  _326
REMARK  130  A    between atoms: _329  and  _331
REMARK  131  A    between atoms: _331  and  _332
REMARK  132  A    between atoms: _334  and  _336
REMARK  133  A    between atoms: _336  and  _337
REMARK  134  A    between atoms: _336  and  _339
REMARK  135  A    between atoms: _339  and  _340
REMARK  136  A    between atoms: _345  and  _347
REMARK  137  A    between atoms: _347  and  _348
REMARK  138  A    between atoms: _347  and  _350
REMARK  139  A    between atoms: _350  and  _351
REMARK  140  A    between atoms: _354  and  _356
REMARK  141  A    between atoms: _356  and  _357
REMARK  142  A    between atoms: _356  and  _359
REMARK  143  A    between atoms: _359  and  _360
REMARK  144  A    between atoms: _363  and  _365
REMARK  145  A    between atoms: _365  and  _366
REMARK  146  A    between atoms: _365  and  _368
REMARK  147  A    between atoms: _368  and  _369
REMARK  148  A    between atoms: _369  and  _370
REMARK  149  A    between atoms: _372  and  _374
REMARK  150  A    between atoms: _374  and  _375
REMARK  151  A    between atoms: _374  and  _377
REMARK  152  A    between atoms: _377  and  _378
REMARK  153  A    between atoms: _381  and  _383
REMARK  154  A    between atoms: _383  and  _384
REMARK  155  A    between atoms: _383  and  _386
REMARK  156  A    between atoms: _386  and  _387
REMARK  157  A    between atoms: _390  and  _392
REMARK  158  A    between atoms: _392  and  _393
REMARK  159  A    between atoms: _392  and  _395
REMARK  160  A    between atoms: _395  and  _396
REMARK  161  A    between atoms: _396  and  _397
REMARK  162  A    between atoms: _400  and  _402
REMARK  163  A    between atoms: _402  and  _403
REMARK  164  A    between atoms: _402  and  _405
REMARK  165  A    between atoms: _405  and  _406
REMARK  166  A    between atoms: _411  and  _412
REMARK  167  A    between atoms: _414  and  _416
REMARK  168  A    between atoms: _416  and  _417
REMARK  169  A    between atoms: _416  and  _419
REMARK  170  A    between atoms: _419  and  _420
REMARK  171  A    between atoms: _426  and  _428
REMARK  172  A    between atoms: _428  and  _429
REMARK  173  A    between atoms: _428  and  _431
REMARK  174  A    between atoms: _431  and  _432
REMARK  175  A    between atoms: _437  and  _439
REMARK  176  A    between atoms: _439  and  _440
REMARK  177  A    between atoms: _439  and  _442
REMARK  178  A    between atoms: _442  and  _443
REMARK  179  A    between atoms: _443  and  _444
REMARK  180  A    between atoms: _447  and  _449
REMARK  181  A    between atoms: _449  and  _450
REMARK  182  A    between atoms: _449  and  _452
REMARK  183  A    between atoms: _452  and  _453
REMARK  184  A    between atoms: _458  and  _459
REMARK  185  A    between atoms: _461  and  _463
REMARK  186  A    between atoms: _463  and  _464
REMARK  187  A    between atoms: _463  and  _466
REMARK  188  A    between atoms: _466  and  _467
REMARK  189  A    between atoms: _470  and  _472
REMARK  190  A    between atoms: _472  and  _473
REMARK  191  A    between atoms: _472  and  _475
REMARK  192  A    between atoms: _475  and  _476
REMARK  193  A    between atoms: _481  and  _482
REMARK  194  A    between atoms: _484  and  _486
REMARK  195  A    between atoms: _486  and  _487
REMARK  196  A    between atoms: _486  and  _489
REMARK  197  A    between atoms: _489  and  _490
REMARK  198  A    between atoms: _493  and  _494
REMARK  199  A    between atoms: _499  and  _501
REMARK  200  A    between atoms: _501  and  _502
REMARK  201  A    between atoms: _501  and  _504
REMARK  202  A    between atoms: _504  and  _505
REMARK  203  A    between atoms: _511  and  _513
REMARK  204  A    between atoms: _513  and  _514
REMARK  205  A    between atoms: _513  and  _516
REMARK  206  A    between atoms: _516  and  _517
REMARK  207  A    between atoms: _523  and  _525
REMARK  208  A    between atoms: _525  and  _526
REMARK  209  A    between atoms: _525  and  _528
REMARK  210  A    between atoms: _528  and  _529
REMARK  211  A    between atoms: _531  and  _533
REMARK  212  A    between atoms: _533  and  _534
REMARK  213  A    between atoms: _533  and  _536
REMARK  214  A    between atoms: _536  and  _537
REMARK  215  A    between atoms: _540  and  _542
REMARK  216  A    between atoms: _542  and  _543
REMARK  217  A    between atoms: _542  and  _545
REMARK  218  A    between atoms: _545  and  _546
REMARK  219  A    between atoms: _556  and  _558
REMARK  220  A    between atoms: _558  and  _559
REMARK  221  A    between atoms: _561  and  _563
REMARK  222  A    between atoms: _563  and  _564
REMARK  223  A    between atoms: _563  and  _566
REMARK  224  A    between atoms: _566  and  _567
REMARK  225  A    between atoms: _577  and  _579
REMARK  226  A    between atoms: _579  and  _580
REMARK  227  A    between atoms: _579  and  _582
REMARK  228  A    between atoms: _582  and  _583
REMARK  229  A    between atoms: _585  and  _587
REMARK  230  A    between atoms: _587  and  _588
REMARK  231  A    between atoms: _587  and  _590
REMARK  232  A    between atoms: _590  and  _591
REMARK  233  A    between atoms: _591  and  _592
REMARK  234  A    between atoms: _597  and  _599
REMARK  235  A    between atoms: _599  and  _600
REMARK  236  A    between atoms: _599  and  _602
REMARK  237  A    between atoms: _602  and  _603
REMARK  238  A    between atoms: _605  and  _607
REMARK  239  A    between atoms: _607  and  _608
REMARK  240  A    between atoms: _607  and  _610
REMARK  241  A    between atoms: _610  and  _611
REMARK  242  A    between atoms: _614  and  _616
REMARK  243  A    between atoms: _616  and  _617
REMARK  244  A    between atoms: _616  and  _619
REMARK  245  A    between atoms: _619  and  _620
REMARK  246  A    between atoms: _620  and  _621
REMARK  247  A    between atoms: _624  and  _626
REMARK  248  A    between atoms: _626  and  _627
REMARK  249  A    between atoms: _626  and  _629
REMARK  250  A    between atoms: _629  and  _630
REMARK  251  A    between atoms: _636  and  _638
REMARK  252  A    between atoms: _638  and  _639
REMARK  253  A    between atoms: _641  and  _643
REMARK  254  A    between atoms: _643  and  _644
REMARK  255  A    between atoms: _643  and  _646
REMARK  256  A    between atoms: _646  and  _647
REMARK  257  A    between atoms: _652  and  _653
REMARK  258  A    between atoms: _655  and  _657
REMARK  259  A    between atoms: _657  and  _658
REMARK  260  A    between atoms: _657  and  _660
REMARK  261  A    between atoms: _660  and  _661
REMARK  262  A    between atoms: _666  and  _667
REMARK  263  A    between atoms: _669  and  _671
REMARK  264  A    between atoms: _671  and  _672
REMARK  265  A    between atoms: _671  and  _674
REMARK  266  A    between atoms: _674  and  _675
REMARK  267  A    between atoms: _675  and  _676
REMARK  268  A    between atoms: _676  and  _677
REMARK                            x       y       z     vdW  Elec       q    Type
REMARK                         _______ _______ _______ _____ _____    ______ ____
ROOT
ATOM      1  O   HOH     1      -8.078  14.132 -10.024  0.00  0.00    +0.000 OA
ENDROOT
TORSDOF 0
REMARK  Name = ../refined-set-2016/3zm9/3zm9_pocket.pdb
REMARK  268 active torsions:
REMARK  status: ('A' for Active; 'I' for Inactive)
REMARK    1  A    between atoms: _1  and  _3
REMARK    2  A    between atoms: _3  and  _4
REMARK    3  A    between atoms: _3  and  _6
REMARK    4  A    between atoms: _6  and  _7
REMARK    5  A    between atoms: _10  and  _12
REMARK    6  A    between atoms: _12  and  _13
REMARK    7  A    between atoms: _12  and  _15
REMARK    8  A    between atoms: _15  and  _16
REMARK    9  A    between atoms: _16  and  _17
REMARK   10  A    between atoms: _17  and  _18
REMARK   11  A    between atoms: _27  and  _29
REMARK   12  A    between atoms: _29  and  _30
REMARK   13  A    between atoms: _29  and  _32
REMARK   14  A    between atoms: _32  and  _33
REMARK   15  A    between atoms: _38  and  _40
REMARK   16  A    between atoms: _40  and  _41
REMARK   17  A    between atoms: _40  and  _43
REMARK   18  A    between atoms: _43  and  _44
REMARK   19  A    between atoms: _47  and  _49
REMARK   20  A    between atoms: _49  and  _50
REMARK   21  A    between atoms: _49  and  _52
REMARK   22  A    between atoms: _52  and  _53
REMARK   23  A    between atoms: _53  and  _54
REMARK   24  A    between atoms: _59  and  _61
REMARK   25  A    between atoms: _61  and  _62
REMARK   26  A    between atoms: _61  and  _64
REMARK   27  A    between atoms: _67  and  _69
REMARK   28  A    between atoms: _69  and  _70
REMARK   29  A    between atoms: _69  and  _72
REMARK   30  A    between atoms: _72  and  _73
REMARK   31  A    between atoms: _76  and  _78
REMARK   32  A    between atoms: _78  and  _79
REMARK   33  A    between atoms: _78  and  _81
REMARK   34  A    between atoms: _81  and  _82
REMARK   35  A    between atoms: _85  and  _87
REMARK   36  A    between atoms: _87  and  _88
REMARK   37  A    between atoms: _87  and  _90
REMARK   38  A    between atoms: _90  and  _91
REMARK   39  A    between atoms: _91  and  _92
REMARK   40  A    between atoms: _92  and  _93
REMARK   41  A    between atoms: _102  and  _104
REMARK   42  A    between atoms: _104  and  _105
REMARK   43  A    between atoms: _104  and  _107
REMARK   44  A    between atoms: _107  and  _108
REMARK   45  A    between atoms: _114  and  _116
REMARK   46  A    between atoms: _116  and  _117
REMARK   47  A    between atoms: _120  and  _121
REMARK   48  A    between atoms: _126  and  _128
REMARK   49  A    between atoms: _128  and  _129
REMARK   50  A    between atoms: _128  and  _131
REMARK   51  A    between atoms: _131  and  _132
REMARK   52  A    between atoms: _132  and  _133
REMARK   53  A    between atoms: _133  and  _134
REMARK   54  A    between atoms: _134  and  _135
REMARK   55  A    between atoms: _139  and  _141
REMARK   56  A    between atoms: _141  and  _142
REMARK   57  A    between atoms: _141  and  _144
REMARK   58  A    between atoms: _144  and  _145
REMARK   59  A    between atoms: _145  and  _146
REMARK   60  A    between atoms: _146  and  _147
REMARK   61  A    between atoms: _156  and  _158
REMARK   62  A    between atoms: _158  and  _159
REMARK   63  A    between atoms: _158  and  _161
REMARK   64  A    between atoms: _161  and  _162
REMARK   65  A    between atoms: _165  and  _167
REMARK   66  A    between atoms: _167  and  _168
REMARK   67  A    between atoms: _167  and  _170
REMARK   68  A    between atoms: _170  and  _171
REMARK   69  A    between atoms: _171  and  _172
REMARK   70  A    between atoms: _175  and  _177
REMARK   71  A    between atoms: _177  and  _178
REMARK   72  A    between atoms: _177  and  _180
REMARK   73  A    between atoms: _180  and  _181
REMARK   74  A    between atoms: _181  and  _182
REMARK   75  A    between atoms: _187  and  _189
REMARK   76  A    between atoms: _189  and  _190
REMARK   77  A    between atoms: _189  and  _192
REMARK   78  A    between atoms: _192  and  _193
REMARK   79  A    between atoms: _199  and  _201
REMARK   80  A    between atoms: _201  and  _202
REMARK   81  A    between atoms: _201  and  _204
REMARK   82  A    between atoms: _204  and  _205
REMARK   83  A    between atoms: _209  and  _210
REMARK   84  A    between atoms: _215  and  _217
REMARK   85  A    between atoms: _217  and  _218
REMARK   86  A    between atoms: _217  and  _220
REMARK   87  A    between atoms: _220  and  _221
REMARK   88  A    between atoms: _223  and  _225
REMARK   89  A    between atoms: _225  and  _226
REMARK   90  A    between atoms: _225  and  _228
REMARK   91  A    between atoms: _228  and  _229
REMARK   92  A    between atoms: _229  and  _230
REMARK   93  A    between atoms: _230  and  _231
REMARK   94  A    between atoms: _240  and  _242
REMARK   95  A    between atoms: _242  and  _243
REMARK   96  A    between atoms: _242  and  _245
REMARK   97  A    between atoms: _245  and  _246
REMARK   98  A    between atoms: _246  and  _247
REMARK   99  A    between atoms: _247  and  _248
REMARK  100  A    between atoms: _257  and  _259
REMARK  101  A    between atoms: _259  and  _260
REMARK  102  A    between atoms: _259  and  _262
REMARK  103  A    between atoms: _262  and  _263
REMARK  104  A    between atoms: _266  and  _268
REMARK  105  A    between atoms: _268  and  _269
REMARK  106  A    between atoms: _268  and  _271
REMARK  107  A    between atoms: _271  and  _272
REMARK  108  A    between atoms: _277  and  _278
REMARK  109  A    between atoms: _280  and  _282
REMARK  110  A    between atoms: _282  and  _283
REMARK  111  A    between atoms: _282  and  _285
REMARK  112  A    between atoms: _285  and  _286
REMARK  113  A    between atoms: _291  and  _293
REMARK  114  A    between atoms: _293  and  _294
REMARK  115  A    between atoms: _293  and  _296
REMARK  116  A    between atoms: _296  and  _297
REMARK  117  A    between atoms: _300  and  _302
REMARK  118  A    between atoms: _302  and  _303
REMARK  119  A    between atoms: _302  and  _305
REMARK  120  A    between atoms: _307  and  _309
REMARK  121  A    between atoms: _309  and  _310
REMARK  122  A    between atoms: _309  and  _312
REMARK  123  A    between atoms: _312  and  _313
REMARK  124  A    between atoms: _313  and  _314
REMARK  125  A    between atoms: _319  and  _321
REMARK  126  A    between atoms: _321  and  _322
REMARK  127  A    between atoms: _321  and  _324
REMARK  128  A    between atoms: _324  and  _325
REMARK  129  A    between atoms: _325  and  _326
REMARK  130  A    between atoms: _329  and  _331
REMARK  131  A    between atoms: _331  and  _332
REMARK  132  A    between atoms: _334  and  _336
REMARK  133  A    between atoms: _336  and  _337
REMARK  134  A    between atoms: _336  and  _339
REMARK  135  A    between atoms: _339  and  _340
REMARK  136  A    between atoms: _345  and  _347
REMARK  137  A    between atoms: _347  and  _348
REMARK  138  A    between atoms: _347  and  _350
REMARK  139  A    between atoms: _350  and  _351
REMARK  140  A    between atoms: _354  and  _356
REMARK  141  A    between atoms: _356  and  _357
REMARK  142  A    between atoms: _356  and  _359
REMARK  143  A    between atoms: _359  and  _360
REMARK  144  A    between atoms: _363  and  _365
REMARK  145  A    between atoms: _365  and  _366
REMARK  146  A    between atoms: _365  and  _368
REMARK  147  A    between atoms: _368  and  _369
REMARK  148  A    between atoms: _369  and  _370
REMARK  149  A    between atoms: _372  and  _374
REMARK  150  A    between atoms: _374  and  _375
REMARK  151  A    between atoms: _374  and  _377
REMARK  152  A    between atoms: _377  and  _378
REMARK  153  A    between atoms: _381  and  _383
REMARK  154  A    between atoms: _383  and  _384
REMARK  155  A    between atoms: _383  and  _386
REMARK  156  A    between atoms: _386  and  _387
REMARK  157  A    between atoms: _390  and  _392
REMARK  158  A    between atoms: _392  and  _393
REMARK  159  A    between atoms: _392  and  _395
REMARK  160  A    between atoms: _395  and  _396
REMARK  161  A    between atoms: _396  and  _397
REMARK  162  A    between atoms: _400  and  _402
REMARK  163  A    between atoms: _402  and  _403
REMARK  164  A    between atoms: _402  and  _405
REMARK  165  A    between atoms: _405  and  _406
REMARK  166  A    between atoms: _411  and  _412
REMARK  167  A    between atoms: _414  and  _416
REMARK  168  A    between atoms: _416  and  _417
REMARK  169  A    between atoms: _416  and  _419
REMARK  170  A    between atoms: _419  and  _420
REMARK  171  A    between atoms: _426  and  _428
REMARK  172  A    between atoms: _428  and  _429
REMARK  173  A    between atoms: _428  and  _431
REMARK  174  A    between atoms: _431  and  _432
REMARK  175  A    between atoms: _437  and  _439
REMARK  176  A    between atoms: _439  and  _440
REMARK  177  A    between atoms: _439  and  _442
REMARK  178  A    between atoms: _442  and  _443
REMARK  179  A    between atoms: _443  and  _444
REMARK  180  A    between atoms: _447  and  _449
REMARK  181  A    between atoms: _449  and  _450
REMARK  182  A    between atoms: _449  and  _452
REMARK  183  A    between atoms: _452  and  _453
REMARK  184  A    between atoms: _458  and  _459
REMARK  185  A    between atoms: _461  and  _463
REMARK  186  A    between atoms: _463  and  _464
REMARK  187  A    between atoms: _463  and  _466
REMARK  188  A    between atoms: _466  and  _467
REMARK  189  A    between atoms: _470  and  _472
REMARK  190  A    between atoms: _472  and  _473
REMARK  191  A    between atoms: _472  and  _475
REMARK  192  A    between atoms: _475  and  _476
REMARK  193  A    between atoms: _481  and  _482
REMARK  194  A    between atoms: _484  and  _486
REMARK  195  A    between atoms: _486  and  _487
REMARK  196  A    between atoms: _486  and  _489
REMARK  197  A    between atoms: _489  and  _490
REMARK  198  A    between atoms: _493  and  _494
REMARK  199  A    between atoms: _499  and  _501
REMARK  200  A    between atoms: _501  and  _502
REMARK  201  A    between atoms: _501  and  _504
REMARK  202  A    between atoms: _504  and  _505
REMARK  203  A    between atoms: _511  and  _513
REMARK  204  A    between atoms: _513  and  _514
REMARK  205  A    between atoms: _513  and  _516
REMARK  206  A    between atoms: _516  and  _517
REMARK  207  A    between atoms: _523  and  _525
REMARK  208  A    between atoms: _525  and  _526
REMARK  209  A    between atoms: _525  and  _528
REMARK  210  A    between atoms: _528  and  _529
REMARK  211  A    between atoms: _531  and  _533
REMARK  212  A    between atoms: _533  and  _534
REMARK  213  A    between atoms: _533  and  _536
REMARK  214  A    between atoms: _536  and  _537
REMARK  215  A    between atoms: _540  and  _542
REMARK  216  A    between atoms: _542  and  _543
REMARK  217  A    between atoms: _542  and  _545
REMARK  218  A    between atoms: _545  and  _546
REMARK  219  A    between atoms: _556  and  _558
REMARK  220  A    between atoms: _558  and  _559
REMARK  221  A    between atoms: _561  and  _563
REMARK  222  A    between atoms: _563  and  _564
REMARK  223  A    between atoms: _563  and  _566
REMARK  224  A    between atoms: _566  and  _567
REMARK  225  A    between atoms: _577  and  _579
REMARK  226  A    between atoms: _579  and  _580
REMARK  227  A    between atoms: _579  and  _582
REMARK  228  A    between atoms: _582  and  _583
REMARK  229  A    between atoms: _585  and  _587
REMARK  230  A    between atoms: _587  and  _588
REMARK  231  A    between atoms: _587  and  _590
REMARK  232  A    between atoms: _590  and  _591
REMARK  233  A    between atoms: _591  and  _592
REMARK  234  A    between atoms: _597  and  _599
REMARK  235  A    between atoms: _599  and  _600
REMARK  236  A    between atoms: _599  and  _602
REMARK  237  A    between atoms: _602  and  _603
REMARK  238  A    between atoms: _605  and  _607
REMARK  239  A    between atoms: _607  and  _608
REMARK  240  A    between atoms: _607  and  _610
REMARK  241  A    between atoms: _610  and  _611
REMARK  242  A    between atoms: _614  and  _616
REMARK  243  A    between atoms: _616  and  _617
REMARK  244  A    between atoms: _616  and  _619
REMARK  245  A    between atoms: _619  and  _620
REMARK  246  A    between atoms: _620  and  _621
REMARK  247  A    between atoms: _624  and  _626
REMARK  248  A    between atoms: _626  and  _627
REMARK  249  A    between atoms: _626  and  _629
REMARK  250  A    between atoms: _629  and  _630
REMARK  251  A    between atoms: _636  and  _638
REMARK  252  A    between atoms: _638  and  _639
REMARK  253  A    between atoms: _641  and  _643
REMARK  254  A    between atoms: _643  and  _644
REMARK  255  A    between atoms: _643  and  _646
REMARK  256  A    between atoms: _646  and  _647
REMARK  257  A    between atoms: _652  and  _653
REMARK  258  A    between atoms: _655  and  _657
REMARK  259  A    between atoms: _657  and  _658
REMARK  260  A    between atoms: _657  and  _660
REMARK  261  A    between atoms: _660  and  _661
REMARK  262  A    between atoms: _666  and  _667
REMARK  263  A    between atoms: _669  and  _671
REMARK  264  A    between atoms: _671  and  _672
REMARK  265  A    between atoms: _671  and  _674
REMARK  266  A    between atoms: _674  and  _675
REMARK  267  A    between atoms: _675  and  _676
REMARK  268  A    between atoms: _676  and  _677
REMARK                            x       y       z     vdW  Elec       q    Type
REMARK                         _______ _______ _______ _____ _____    ______ ____
ROOT
ATOM      1  O   HOH     1     -12.015  10.009  -1.371  0.00  0.00    +0.000 OA
ENDROOT
TORSDOF 0
REMARK  Name = ../refined-set-2016/3zm9/3zm9_pocket.pdb
REMARK  268 active torsions:
REMARK  status: ('A' for Active; 'I' for Inactive)
REMARK    1  A    between atoms: _1  and  _3
REMARK    2  A    between atoms: _3  and  _4
REMARK    3  A    between atoms: _3  and  _6
REMARK    4  A    between atoms: _6  and  _7
REMARK    5  A    between atoms: _10  and  _12
REMARK    6  A    between atoms: _12  and  _13
REMARK    7  A    between atoms: _12  and  _15
REMARK    8  A    between atoms: _15  and  _16
REMARK    9  A    between atoms: _16  and  _17
REMARK   10  A    between atoms: _17  and  _18
REMARK   11  A    between atoms: _27  and  _29
REMARK   12  A    between atoms: _29  and  _30
REMARK   13  A    between atoms: _29  and  _32
REMARK   14  A    between atoms: _32  and  _33
REMARK   15  A    between atoms: _38  and  _40
REMARK   16  A    between atoms: _40  and  _41
REMARK   17  A    between atoms: _40  and  _43
REMARK   18  A    between atoms: _43  and  _44
REMARK   19  A    between atoms: _47  and  _49
REMARK   20  A    between atoms: _49  and  _50
REMARK   21  A    between atoms: _49  and  _52
REMARK   22  A    between atoms: _52  and  _53
REMARK   23  A    between atoms: _53  and  _54
REMARK   24  A    between atoms: _59  and  _61
REMARK   25  A    between atoms: _61  and  _62
REMARK   26  A    between atoms: _61  and  _64
REMARK   27  A    between atoms: _67  and  _69
REMARK   28  A    between atoms: _69  and  _70
REMARK   29  A    between atoms: _69  and  _72
REMARK   30  A    between atoms: _72  and  _73
REMARK   31  A    between atoms: _76  and  _78
REMARK   32  A    between atoms: _78  and  _79
REMARK   33  A    between atoms: _78  and  _81
REMARK   34  A    between atoms: _81  and  _82
REMARK   35  A    between atoms: _85  and  _87
REMARK   36  A    between atoms: _87  and  _88
REMARK   37  A    between atoms: _87  and  _90
REMARK   38  A    between atoms: _90  and  _91
REMARK   39  A    between atoms: _91  and  _92
REMARK   40  A    between atoms: _92  and  _93
REMARK   41  A    between atoms: _102  and  _104
REMARK   42  A    between atoms: _104  and  _105
REMARK   43  A    between atoms: _104  and  _107
REMARK   44  A    between atoms: _107  and  _108
REMARK   45  A    between atoms: _114  and  _116
REMARK   46  A    between atoms: _116  and  _117
REMARK   47  A    between atoms: _120  and  _121
REMARK   48  A    between atoms: _126  and  _128
REMARK   49  A    between atoms: _128  and  _129
REMARK   50  A    between atoms: _128  and  _131
REMARK   51  A    between atoms: _131  and  _132
REMARK   52  A    between atoms: _132  and  _133
REMARK   53  A    between atoms: _133  and  _134
REMARK   54  A    between atoms: _134  and  _135
REMARK   55  A    between atoms: _139  and  _141
REMARK   56  A    between atoms: _141  and  _142
REMARK   57  A    between atoms: _141  and  _144
REMARK   58  A    between atoms: _144  and  _145
REMARK   59  A    between atoms: _145  and  _146
REMARK   60  A    between atoms: _146  and  _147
REMARK   61  A    between atoms: _156  and  _158
REMARK   62  A    between atoms: _158  and  _159
REMARK   63  A    between atoms: _158  and  _161
REMARK   64  A    between atoms: _161  and  _162
REMARK   65  A    between atoms: _165  and  _167
REMARK   66  A    between atoms: _167  and  _168
REMARK   67  A    between atoms: _167  and  _170
REMARK   68  A    between atoms: _170  and  _171
REMARK   69  A    between atoms: _171  and  _172
REMARK   70  A    between atoms: _175  and  _177
REMARK   71  A    between atoms: _177  and  _178
REMARK   72  A    between atoms: _177  and  _180
REMARK   73  A    between atoms: _180  and  _181
REMARK   74  A    between atoms: _181  and  _182
REMARK   75  A    between atoms: _187  and  _189
REMARK   76  A    between atoms: _189  and  _190
REMARK   77  A    between atoms: _189  and  _192
REMARK   78  A    between atoms: _192  and  _193
REMARK   79  A    between atoms: _199  and  _201
REMARK   80  A    between atoms: _201  and  _202
REMARK   81  A    between atoms: _201  and  _204
REMARK   82  A    between atoms: _204  and  _205
REMARK   83  A    between atoms: _209  and  _210
REMARK   84  A    between atoms: _215  and  _217
REMARK   85  A    between atoms: _217  and  _218
REMARK   86  A    between atoms: _217  and  _220
REMARK   87  A    between atoms: _220  and  _221
REMARK   88  A    between atoms: _223  and  _225
REMARK   89  A    between atoms: _225  and  _226
REMARK   90  A    between atoms: _225  and  _228
REMARK   91  A    between atoms: _228  and  _229
REMARK   92  A    between atoms: _229  and  _230
REMARK   93  A    between atoms: _230  and  _231
REMARK   94  A    between atoms: _240  and  _242
REMARK   95  A    between atoms: _242  and  _243
REMARK   96  A    between atoms: _242  and  _245
REMARK   97  A    between atoms: _245  and  _246
REMARK   98  A    between atoms: _246  and  _247
REMARK   99  A    between atoms: _247  and  _248
REMARK  100  A    between atoms: _257  and  _259
REMARK  101  A    between atoms: _259  and  _260
REMARK  102  A    between atoms: _259  and  _262
REMARK  103  A    between atoms: _262  and  _263
REMARK  104  A    between atoms: _266  and  _268
REMARK  105  A    between atoms: _268  and  _269
REMARK  106  A    between atoms: _268  and  _271
REMARK  107  A    between atoms: _271  and  _272
REMARK  108  A    between atoms: _277  and  _278
REMARK  109  A    between atoms: _280  and  _282
REMARK  110  A    between atoms: _282  and  _283
REMARK  111  A    between atoms: _282  and  _285
REMARK  112  A    between atoms: _285  and  _286
REMARK  113  A    between atoms: _291  and  _293
REMARK  114  A    between atoms: _293  and  _294
REMARK  115  A    between atoms: _293  and  _296
REMARK  116  A    between atoms: _296  and  _297
REMARK  117  A    between atoms: _300  and  _302
REMARK  118  A    between atoms: _302  and  _303
REMARK  119  A    between atoms: _302  and  _305
REMARK  120  A    between atoms: _307  and  _309
REMARK  121  A    between atoms: _309  and  _310
REMARK  122  A    between atoms: _309  and  _312
REMARK  123  A    between atoms: _312  and  _313
REMARK  124  A    between atoms: _313  and  _314
REMARK  125  A    between atoms: _319  and  _321
REMARK  126  A    between atoms: _321  and  _322
REMARK  127  A    between atoms: _321  and  _324
REMARK  128  A    between atoms: _324  and  _325
REMARK  129  A    between atoms: _325  and  _326
REMARK  130  A    between atoms: _329  and  _331
REMARK  131  A    between atoms: _331  and  _332
REMARK  132  A    between atoms: _334  and  _336
REMARK  133  A    between atoms: _336  and  _337
REMARK  134  A    between atoms: _336  and  _339
REMARK  135  A    between atoms: _339  and  _340
REMARK  136  A    between atoms: _345  and  _347
REMARK  137  A    between atoms: _347  and  _348
REMARK  138  A    between atoms: _347  and  _350
REMARK  139  A    between atoms: _350  and  _351
REMARK  140  A    between atoms: _354  and  _356
REMARK  141  A    between atoms: _356  and  _357
REMARK  142  A    between atoms: _356  and  _359
REMARK  143  A    between atoms: _359  and  _360
REMARK  144  A    between atoms: _363  and  _365
REMARK  145  A    between atoms: _365  and  _366
REMARK  146  A    between atoms: _365  and  _368
REMARK  147  A    between atoms: _368  and  _369
REMARK  148  A    between atoms: _369  and  _370
REMARK  149  A    between atoms: _372  and  _374
REMARK  150  A    between atoms: _374  and  _375
REMARK  151  A    between atoms: _374  and  _377
REMARK  152  A    between atoms: _377  and  _378
REMARK  153  A    between atoms: _381  and  _383
REMARK  154  A    between atoms: _383  and  _384
REMARK  155  A    between atoms: _383  and  _386
REMARK  156  A    between atoms: _386  and  _387
REMARK  157  A    between atoms: _390  and  _392
REMARK  158  A    between atoms: _392  and  _393
REMARK  159  A    between atoms: _392  and  _395
REMARK  160  A    between atoms: _395  and  _396
REMARK  161  A    between atoms: _396  and  _397
REMARK  162  A    between atoms: _400  and  _402
REMARK  163  A    between atoms: _402  and  _403
REMARK  164  A    between atoms: _402  and  _405
REMARK  165  A    between atoms: _405  and  _406
REMARK  166  A    between atoms: _411  and  _412
REMARK  167  A    between atoms: _414  and  _416
REMARK  168  A    between atoms: _416  and  _417
REMARK  169  A    between atoms: _416  and  _419
REMARK  170  A    between atoms: _419  and  _420
REMARK  171  A    between atoms: _426  and  _428
REMARK  172  A    between atoms: _428  and  _429
REMARK  173  A    between atoms: _428  and  _431
REMARK  174  A    between atoms: _431  and  _432
REMARK  175  A    between atoms: _437  and  _439
REMARK  176  A    between atoms: _439  and  _440
REMARK  177  A    between atoms: _439  and  _442
REMARK  178  A    between atoms: _442  and  _443
REMARK  179  A    between atoms: _443  and  _444
REMARK  180  A    between atoms: _447  and  _449
REMARK  181  A    between atoms: _449  and  _450
REMARK  182  A    between atoms: _449  and  _452
REMARK  183  A    between atoms: _452  and  _453
REMARK  184  A    between atoms: _458  and  _459
REMARK  185  A    between atoms: _461  and  _463
REMARK  186  A    between atoms: _463  and  _464
REMARK  187  A    between atoms: _463  and  _466
REMARK  188  A    between atoms: _466  and  _467
REMARK  189  A    between atoms: _470  and  _472
REMARK  190  A    between atoms: _472  and  _473
REMARK  191  A    between atoms: _472  and  _475
REMARK  192  A    between atoms: _475  and  _476
REMARK  193  A    between atoms: _481  and  _482
REMARK  194  A    between atoms: _484  and  _486
REMARK  195  A    between atoms: _486  and  _487
REMARK  196  A    between atoms: _486  and  _489
REMARK  197  A    between atoms: _489  and  _490
REMARK  198  A    between atoms: _493  and  _494
REMARK  199  A    between atoms: _499  and  _501
REMARK  200  A    between atoms: _501  and  _502
REMARK  201  A    between atoms: _501  and  _504
REMARK  202  A    between atoms: _504  and  _505
REMARK  203  A    between atoms: _511  and  _513
REMARK  204  A    between atoms: _513  and  _514
REMARK  205  A    between atoms: _513  and  _516
REMARK  206  A    between atoms: _516  and  _517
REMARK  207  A    between atoms: _523  and  _525
REMARK  208  A    between atoms: _525  and  _526
REMARK  209  A    between atoms: _525  and  _528
REMARK  210  A    between atoms: _528  and  _529
REMARK  211  A    between atoms: _531  and  _533
REMARK  212  A    between atoms: _533  and  _534
REMARK  213  A    between atoms: _533  and  _536
REMARK  214  A    between atoms: _536  and  _537
REMARK  215  A    between atoms: _540  and  _542
REMARK  216  A    between atoms: _542  and  _543
REMARK  217  A    between atoms: _542  and  _545
REMARK  218  A    between atoms: _545  and  _546
REMARK  219  A    between atoms: _556  and  _558
REMARK  220  A    between atoms: _558  and  _559
REMARK  221  A    between atoms: _561  and  _563
REMARK  222  A    between atoms: _563  and  _564
REMARK  223  A    between atoms: _563  and  _566
REMARK  224  A    between atoms: _566  and  _567
REMARK  225  A    between atoms: _577  and  _579
REMARK  226  A    between atoms: _579  and  _580
REMARK  227  A    between atoms: _579  and  _582
REMARK  228  A    between atoms: _582  and  _583
REMARK  229  A    between atoms: _585  and  _587
REMARK  230  A    between atoms: _587  and  _588
REMARK  231  A    between atoms: _587  and  _590
REMARK  232  A    between atoms: _590  and  _591
REMARK  233  A    between atoms: _591  and  _592
REMARK  234  A    between atoms: _597  and  _599
REMARK  235  A    between atoms: _599  and  _600
REMARK  236  A    between atoms: _599  and  _602
REMARK  237  A    between atoms: _602  and  _603
REMARK  238  A    between atoms: _605  and  _607
REMARK  239  A    between atoms: _607  and  _608
REMARK  240  A    between atoms: _607  and  _610
REMARK  241  A    between atoms: _610  and  _611
REMARK  242  A    between atoms: _614  and  _616
REMARK  243  A    between atoms: _616  and  _617
REMARK  244  A    between atoms: _616  and  _619
REMARK  245  A    between atoms: _619  and  _620
REMARK  246  A    between atoms: _620  and  _621
REMARK  247  A    between atoms: _624  and  _626
REMARK  248  A    between atoms: _626  and  _627
REMARK  249  A    between atoms: _626  and  _629
REMARK  250  A    between atoms: _629  and  _630
REMARK  251  A    between atoms: _636  and  _638
REMARK  252  A    between atoms: _638  and  _639
REMARK  253  A    between atoms: _641  and  _643
REMARK  254  A    between atoms: _643  and  _644
REMARK  255  A    between atoms: _643  and  _646
REMARK  256  A    between atoms: _646  and  _647
REMARK  257  A    between atoms: _652  and  _653
REMARK  258  A    between atoms: _655  and  _657
REMARK  259  A    between atoms: _657  and  _658
REMARK  260  A    between atoms: _657  and  _660
REMARK  261  A    between atoms: _660  and  _661
REMARK  262  A    between atoms: _666  and  _667
REMARK  263  A    between atoms: _669  and  _671
REMARK  264  A    between atoms: _671  and  _672
REMARK  265  A    between atoms: _671  and  _674
REMARK  266  A    between atoms: _674  and  _675
REMARK  267  A    between atoms: _675  and  _676
REMARK  268  A    between atoms: _676  and  _677
REMARK                            x       y       z     vdW  Elec       q    Type
REMARK                         _______ _______ _______ _____ _____    ______ ____
ROOT
ATOM      1  O   HOH     1     -10.395   6.837  -7.944  0.00  0.00    +0.000 OA
ENDROOT
TORSDOF 0
REMARK  Name = ../refined-set-2016/3zm9/3zm9_pocket.pdb
REMARK  268 active torsions:
REMARK  status: ('A' for Active; 'I' for Inactive)
REMARK    1  A    between atoms: _1  and  _3
REMARK    2  A    between atoms: _3  and  _4
REMARK    3  A    between atoms: _3  and  _6
REMARK    4  A    between atoms: _6  and  _7
REMARK    5  A    between atoms: _10  and  _12
REMARK    6  A    between atoms: _12  and  _13
REMARK    7  A    between atoms: _12  and  _15
REMARK    8  A    between atoms: _15  and  _16
REMARK    9  A    between atoms: _16  and  _17
REMARK   10  A    between atoms: _17  and  _18
REMARK   11  A    between atoms: _27  and  _29
REMARK   12  A    between atoms: _29  and  _30
REMARK   13  A    between atoms: _29  and  _32
REMARK   14  A    between atoms: _32  and  _33
REMARK   15  A    between atoms: _38  and  _40
REMARK   16  A    between atoms: _40  and  _41
REMARK   17  A    between atoms: _40  and  _43
REMARK   18  A    between atoms: _43  and  _44
REMARK   19  A    between atoms: _47  and  _49
REMARK   20  A    between atoms: _49  and  _50
REMARK   21  A    between atoms: _49  and  _52
REMARK   22  A    between atoms: _52  and  _53
REMARK   23  A    between atoms: _53  and  _54
REMARK   24  A    between atoms: _59  and  _61
REMARK   25  A    between atoms: _61  and  _62
REMARK   26  A    between atoms: _61  and  _64
REMARK   27  A    between atoms: _67  and  _69
REMARK   28  A    between atoms: _69  and  _70
REMARK   29  A    between atoms: _69  and  _72
REMARK   30  A    between atoms: _72  and  _73
REMARK   31  A    between atoms: _76  and  _78
REMARK   32  A    between atoms: _78  and  _79
REMARK   33  A    between atoms: _78  and  _81
REMARK   34  A    between atoms: _81  and  _82
REMARK   35  A    between atoms: _85  and  _87
REMARK   36  A    between atoms: _87  and  _88
REMARK   37  A    between atoms: _87  and  _90
REMARK   38  A    between atoms: _90  and  _91
REMARK   39  A    between atoms: _91  and  _92
REMARK   40  A    between atoms: _92  and  _93
REMARK   41  A    between atoms: _102  and  _104
REMARK   42  A    between atoms: _104  and  _105
REMARK   43  A    between atoms: _104  and  _107
REMARK   44  A    between atoms: _107  and  _108
REMARK   45  A    between atoms: _114  and  _116
REMARK   46  A    between atoms: _116  and  _117
REMARK   47  A    between atoms: _120  and  _121
REMARK   48  A    between atoms: _126  and  _128
REMARK   49  A    between atoms: _128  and  _129
REMARK   50  A    between atoms: _128  and  _131
REMARK   51  A    between atoms: _131  and  _132
REMARK   52  A    between atoms: _132  and  _133
REMARK   53  A    between atoms: _133  and  _134
REMARK   54  A    between atoms: _134  and  _135
REMARK   55  A    between atoms: _139  and  _141
REMARK   56  A    between atoms: _141  and  _142
REMARK   57  A    between atoms: _141  and  _144
REMARK   58  A    between atoms: _144  and  _145
REMARK   59  A    between atoms: _145  and  _146
REMARK   60  A    between atoms: _146  and  _147
REMARK   61  A    between atoms: _156  and  _158
REMARK   62  A    between atoms: _158  and  _159
REMARK   63  A    between atoms: _158  and  _161
REMARK   64  A    between atoms: _161  and  _162
REMARK   65  A    between atoms: _165  and  _167
REMARK   66  A    between atoms: _167  and  _168
REMARK   67  A    between atoms: _167  and  _170
REMARK   68  A    between atoms: _170  and  _171
REMARK   69  A    between atoms: _171  and  _172
REMARK   70  A    between atoms: _175  and  _177
REMARK   71  A    between atoms: _177  and  _178
REMARK   72  A    between atoms: _177  and  _180
REMARK   73  A    between atoms: _180  and  _181
REMARK   74  A    between atoms: _181  and  _182
REMARK   75  A    between atoms: _187  and  _189
REMARK   76  A    between atoms: _189  and  _190
REMARK   77  A    between atoms: _189  and  _192
REMARK   78  A    between atoms: _192  and  _193
REMARK   79  A    between atoms: _199  and  _201
REMARK   80  A    between atoms: _201  and  _202
REMARK   81  A    between atoms: _201  and  _204
REMARK   82  A    between atoms: _204  and  _205
REMARK   83  A    between atoms: _209  and  _210
REMARK   84  A    between atoms: _215  and  _217
REMARK   85  A    between atoms: _217  and  _218
REMARK   86  A    between atoms: _217  and  _220
REMARK   87  A    between atoms: _220  and  _221
REMARK   88  A    between atoms: _223  and  _225
REMARK   89  A    between atoms: _225  and  _226
REMARK   90  A    between atoms: _225  and  _228
REMARK   91  A    between atoms: _228  and  _229
REMARK   92  A    between atoms: _229  and  _230
REMARK   93  A    between atoms: _230  and  _231
REMARK   94  A    between atoms: _240  and  _242
REMARK   95  A    between atoms: _242  and  _243
REMARK   96  A    between atoms: _242  and  _245
REMARK   97  A    between atoms: _245  and  _246
REMARK   98  A    between atoms: _246  and  _247
REMARK   99  A    between atoms: _247  and  _248
REMARK  100  A    between atoms: _257  and  _259
REMARK  101  A    between atoms: _259  and  _260
REMARK  102  A    between atoms: _259  and  _262
REMARK  103  A    between atoms: _262  and  _263
REMARK  104  A    between atoms: _266  and  _268
REMARK  105  A    between atoms: _268  and  _269
REMARK  106  A    between atoms: _268  and  _271
REMARK  107  A    between atoms: _271  and  _272
REMARK  108  A    between atoms: _277  and  _278
REMARK  109  A    between atoms: _280  and  _282
REMARK  110  A    between atoms: _282  and  _283
REMARK  111  A    between atoms: _282  and  _285
REMARK  112  A    between atoms: _285  and  _286
REMARK  113  A    between atoms: _291  and  _293
REMARK  114  A    between atoms: _293  and  _294
REMARK  115  A    between atoms: _293  and  _296
REMARK  116  A    between atoms: _296  and  _297
REMARK  117  A    between atoms: _300  and  _302
REMARK  118  A    between atoms: _302  and  _303
REMARK  119  A    between atoms: _302  and  _305
REMARK  120  A    between atoms: _307  and  _309
REMARK  121  A    between atoms: _309  and  _310
REMARK  122  A    between atoms: _309  and  _312
REMARK  123  A    between atoms: _312  and  _313
REMARK  124  A    between atoms: _313  and  _314
REMARK  125  A    between atoms: _319  and  _321
REMARK  126  A    between atoms: _321  and  _322
REMARK  127  A    between atoms: _321  and  _324
REMARK  128  A    between atoms: _324  and  _325
REMARK  129  A    between atoms: _325  and  _326
REMARK  130  A    between atoms: _329  and  _331
REMARK  131  A    between atoms: _331  and  _332
REMARK  132  A    between atoms: _334  and  _336
REMARK  133  A    between atoms: _336  and  _337
REMARK  134  A    between atoms: _336  and  _339
REMARK  135  A    between atoms: _339  and  _340
REMARK  136  A    between atoms: _345  and  _347
REMARK  137  A    between atoms: _347  and  _348
REMARK  138  A    between atoms: _347  and  _350
REMARK  139  A    between atoms: _350  and  _351
REMARK  140  A    between atoms: _354  and  _356
REMARK  141  A    between atoms: _356  and  _357
REMARK  142  A    between atoms: _356  and  _359
REMARK  143  A    between atoms: _359  and  _360
REMARK  144  A    between atoms: _363  and  _365
REMARK  145  A    between atoms: _365  and  _366
REMARK  146  A    between atoms: _365  and  _368
REMARK  147  A    between atoms: _368  and  _369
REMARK  148  A    between atoms: _369  and  _370
REMARK  149  A    between atoms: _372  and  _374
REMARK  150  A    between atoms: _374  and  _375
REMARK  151  A    between atoms: _374  and  _377
REMARK  152  A    between atoms: _377  and  _378
REMARK  153  A    between atoms: _381  and  _383
REMARK  154  A    between atoms: _383  and  _384
REMARK  155  A    between atoms: _383  and  _386
REMARK  156  A    between atoms: _386  and  _387
REMARK  157  A    between atoms: _390  and  _392
REMARK  158  A    between atoms: _392  and  _393
REMARK  159  A    between atoms: _392  and  _395
REMARK  160  A    between atoms: _395  and  _396
REMARK  161  A    between atoms: _396  and  _397
REMARK  162  A    between atoms: _400  and  _402
REMARK  163  A    between atoms: _402  and  _403
REMARK  164  A    between atoms: _402  and  _405
REMARK  165  A    between atoms: _405  and  _406
REMARK  166  A    between atoms: _411  and  _412
REMARK  167  A    between atoms: _414  and  _416
REMARK  168  A    between atoms: _416  and  _417
REMARK  169  A    between atoms: _416  and  _419
REMARK  170  A    between atoms: _419  and  _420
REMARK  171  A    between atoms: _426  and  _428
REMARK  172  A    between atoms: _428  and  _429
REMARK  173  A    between atoms: _428  and  _431
REMARK  174  A    between atoms: _431  and  _432
REMARK  175  A    between atoms: _437  and  _439
REMARK  176  A    between atoms: _439  and  _440
REMARK  177  A    between atoms: _439  and  _442
REMARK  178  A    between atoms: _442  and  _443
REMARK  179  A    between atoms: _443  and  _444
REMARK  180  A    between atoms: _447  and  _449
REMARK  181  A    between atoms: _449  and  _450
REMARK  182  A    between atoms: _449  and  _452
REMARK  183  A    between atoms: _452  and  _453
REMARK  184  A    between atoms: _458  and  _459
REMARK  185  A    between atoms: _461  and  _463
REMARK  186  A    between atoms: _463  and  _464
REMARK  187  A    between atoms: _463  and  _466
REMARK  188  A    between atoms: _466  and  _467
REMARK  189  A    between atoms: _470  and  _472
REMARK  190  A    between atoms: _472  and  _473
REMARK  191  A    between atoms: _472  and  _475
REMARK  192  A    between atoms: _475  and  _476
REMARK  193  A    between atoms: _481  and  _482
REMARK  194  A    between atoms: _484  and  _486
REMARK  195  A    between atoms: _486  and  _487
REMARK  196  A    between atoms: _486  and  _489
REMARK  197  A    between atoms: _489  and  _490
REMARK  198  A    between atoms: _493  and  _494
REMARK  199  A    between atoms: _499  and  _501
REMARK  200  A    between atoms: _501  and  _502
REMARK  201  A    between atoms: _501  and  _504
REMARK  202  A    between atoms: _504  and  _505
REMARK  203  A    between atoms: _511  and  _513
REMARK  204  A    between atoms: _513  and  _514
REMARK  205  A    between atoms: _513  and  _516
REMARK  206  A    between atoms: _516  and  _517
REMARK  207  A    between atoms: _523  and  _525
REMARK  208  A    between atoms: _525  and  _526
REMARK  209  A    between atoms: _525  and  _528
REMARK  210  A    between atoms: _528  and  _529
REMARK  211  A    between atoms: _531  and  _533
REMARK  212  A    between atoms: _533  and  _534
REMARK  213  A    between atoms: _533  and  _536
REMARK  214  A    between atoms: _536  and  _537
REMARK  215  A    between atoms: _540  and  _542
REMARK  216  A    between atoms: _542  and  _543
REMARK  217  A    between atoms: _542  and  _545
REMARK  218  A    between atoms: _545  and  _546
REMARK  219  A    between atoms: _556  and  _558
REMARK  220  A    between atoms: _558  and  _559
REMARK  221  A    between atoms: _561  and  _563
REMARK  222  A    between atoms: _563  and  _564
REMARK  223  A    between atoms: _563  and  _566
REMARK  224  A    between atoms: _566  and  _567
REMARK  225  A    between atoms: _577  and  _579
REMARK  226  A    between atoms: _579  and  _580
REMARK  227  A    between atoms: _579  and  _582
REMARK  228  A    between atoms: _582  and  _583
REMARK  229  A    between atoms: _585  and  _587
REMARK  230  A    between atoms: _587  and  _588
REMARK  231  A    between atoms: _587  and  _590
REMARK  232  A    between atoms: _590  and  _591
REMARK  233  A    between atoms: _591  and  _592
REMARK  234  A    between atoms: _597  and  _599
REMARK  235  A    between atoms: _599  and  _600
REMARK  236  A    between atoms: _599  and  _602
REMARK  237  A    between atoms: _602  and  _603
REMARK  238  A    between atoms: _605  and  _607
REMARK  239  A    between atoms: _607  and  _608
REMARK  240  A    between atoms: _607  and  _610
REMARK  241  A    between atoms: _610  and  _611
REMARK  242  A    between atoms: _614  and  _616
REMARK  243  A    between atoms: _616  and  _617
REMARK  244  A    between atoms: _616  and  _619
REMARK  245  A    between atoms: _619  and  _620
REMARK  246  A    between atoms: _620  and  _621
REMARK  247  A    between atoms: _624  and  _626
REMARK  248  A    between atoms: _626  and  _627
REMARK  249  A    between atoms: _626  and  _629
REMARK  250  A    between atoms: _629  and  _630
REMARK  251  A    between atoms: _636  and  _638
REMARK  252  A    between atoms: _638  and  _639
REMARK  253  A    between atoms: _641  and  _643
REMARK  254  A    between atoms: _643  and  _644
REMARK  255  A    between atoms: _643  and  _646
REMARK  256  A    between atoms: _646  and  _647
REMARK  257  A    between atoms: _652  and  _653
REMARK  258  A    between atoms: _655  and  _657
REMARK  259  A    between atoms: _657  and  _658
REMARK  260  A    between atoms: _657  and  _660
REMARK  261  A    between atoms: _660  and  _661
REMARK  262  A    between atoms: _666  and  _667
REMARK  263  A    between atoms: _669  and  _671
REMARK  264  A    between atoms: _671  and  _672
REMARK  265  A    between atoms: _671  and  _674
REMARK  266  A    between atoms: _674  and  _675
REMARK  267  A    between atoms: _675  and  _676
REMARK  268  A    between atoms: _676  and  _677
REMARK                            x       y       z     vdW  Elec       q    Type
REMARK                         _______ _______ _______ _____ _____    ______ ____
ROOT
ATOM      1  O   HOH     1     -10.550  10.787  -7.466  0.00  0.00    +0.000 OA
ENDROOT
TORSDOF 0
REMARK  Name = ../refined-set-2016/3zm9/3zm9_pocket.pdb
REMARK  268 active torsions:
REMARK  status: ('A' for Active; 'I' for Inactive)
REMARK    1  A    between atoms: _1  and  _3
REMARK    2  A    between atoms: _3  and  _4
REMARK    3  A    between atoms: _3  and  _6
REMARK    4  A    between atoms: _6  and  _7
REMARK    5  A    between atoms: _10  and  _12
REMARK    6  A    between atoms: _12  and  _13
REMARK    7  A    between atoms: _12  and  _15
REMARK    8  A    between atoms: _15  and  _16
REMARK    9  A    between atoms: _16  and  _17
REMARK   10  A    between atoms: _17  and  _18
REMARK   11  A    between atoms: _27  and  _29
REMARK   12  A    between atoms: _29  and  _30
REMARK   13  A    between atoms: _29  and  _32
REMARK   14  A    between atoms: _32  and  _33
REMARK   15  A    between atoms: _38  and  _40
REMARK   16  A    between atoms: _40  and  _41
REMARK   17  A    between atoms: _40  and  _43
REMARK   18  A    between atoms: _43  and  _44
REMARK   19  A    between atoms: _47  and  _49
REMARK   20  A    between atoms: _49  and  _50
REMARK   21  A    between atoms: _49  and  _52
REMARK   22  A    between atoms: _52  and  _53
REMARK   23  A    between atoms: _53  and  _54
REMARK   24  A    between atoms: _59  and  _61
REMARK   25  A    between atoms: _61  and  _62
REMARK   26  A    between atoms: _61  and  _64
REMARK   27  A    between atoms: _67  and  _69
REMARK   28  A    between atoms: _69  and  _70
REMARK   29  A    between atoms: _69  and  _72
REMARK   30  A    between atoms: _72  and  _73
REMARK   31  A    between atoms: _76  and  _78
REMARK   32  A    between atoms: _78  and  _79
REMARK   33  A    between atoms: _78  and  _81
REMARK   34  A    between atoms: _81  and  _82
REMARK   35  A    between atoms: _85  and  _87
REMARK   36  A    between atoms: _87  and  _88
REMARK   37  A    between atoms: _87  and  _90
REMARK   38  A    between atoms: _90  and  _91
REMARK   39  A    between atoms: _91  and  _92
REMARK   40  A    between atoms: _92  and  _93
REMARK   41  A    between atoms: _102  and  _104
REMARK   42  A    between atoms: _104  and  _105
REMARK   43  A    between atoms: _104  and  _107
REMARK   44  A    between atoms: _107  and  _108
REMARK   45  A    between atoms: _114  and  _116
REMARK   46  A    between atoms: _116  and  _117
REMARK   47  A    between atoms: _120  and  _121
REMARK   48  A    between atoms: _126  and  _128
REMARK   49  A    between atoms: _128  and  _129
REMARK   50  A    between atoms: _128  and  _131
REMARK   51  A    between atoms: _131  and  _132
REMARK   52  A    between atoms: _132  and  _133
REMARK   53  A    between atoms: _133  and  _134
REMARK   54  A    between atoms: _134  and  _135
REMARK   55  A    between atoms: _139  and  _141
REMARK   56  A    between atoms: _141  and  _142
REMARK   57  A    between atoms: _141  and  _144
REMARK   58  A    between atoms: _144  and  _145
REMARK   59  A    between atoms: _145  and  _146
REMARK   60  A    between atoms: _146  and  _147
REMARK   61  A    between atoms: _156  and  _158
REMARK   62  A    between atoms: _158  and  _159
REMARK   63  A    between atoms: _158  and  _161
REMARK   64  A    between atoms: _161  and  _162
REMARK   65  A    between atoms: _165  and  _167
REMARK   66  A    between atoms: _167  and  _168
REMARK   67  A    between atoms: _167  and  _170
REMARK   68  A    between atoms: _170  and  _171
REMARK   69  A    between atoms: _171  and  _172
REMARK   70  A    between atoms: _175  and  _177
REMARK   71  A    between atoms: _177  and  _178
REMARK   72  A    between atoms: _177  and  _180
REMARK   73  A    between atoms: _180  and  _181
REMARK   74  A    between atoms: _181  and  _182
REMARK   75  A    between atoms: _187  and  _189
REMARK   76  A    between atoms: _189  and  _190
REMARK   77  A    between atoms: _189  and  _192
REMARK   78  A    between atoms: _192  and  _193
REMARK   79  A    between atoms: _199  and  _201
REMARK   80  A    between atoms: _201  and  _202
REMARK   81  A    between atoms: _201  and  _204
REMARK   82  A    between atoms: _204  and  _205
REMARK   83  A    between atoms: _209  and  _210
REMARK   84  A    between atoms: _215  and  _217
REMARK   85  A    between atoms: _217  and  _218
REMARK   86  A    between atoms: _217  and  _220
REMARK   87  A    between atoms: _220  and  _221
REMARK   88  A    between atoms: _223  and  _225
REMARK   89  A    between atoms: _225  and  _226
REMARK   90  A    between atoms: _225  and  _228
REMARK   91  A    between atoms: _228  and  _229
REMARK   92  A    between atoms: _229  and  _230
REMARK   93  A    between atoms: _230  and  _231
REMARK   94  A    between atoms: _240  and  _242
REMARK   95  A    between atoms: _242  and  _243
REMARK   96  A    between atoms: _242  and  _245
REMARK   97  A    between atoms: _245  and  _246
REMARK   98  A    between atoms: _246  and  _247
REMARK   99  A    between atoms: _247  and  _248
REMARK  100  A    between atoms: _257  and  _259
REMARK  101  A    between atoms: _259  and  _260
REMARK  102  A    between atoms: _259  and  _262
REMARK  103  A    between atoms: _262  and  _263
REMARK  104  A    between atoms: _266  and  _268
REMARK  105  A    between atoms: _268  and  _269
REMARK  106  A    between atoms: _268  and  _271
REMARK  107  A    between atoms: _271  and  _272
REMARK  108  A    between atoms: _277  and  _278
REMARK  109  A    between atoms: _280  and  _282
REMARK  110  A    between atoms: _282  and  _283
REMARK  111  A    between atoms: _282  and  _285
REMARK  112  A    between atoms: _285  and  _286
REMARK  113  A    between atoms: _291  and  _293
REMARK  114  A    between atoms: _293  and  _294
REMARK  115  A    between atoms: _293  and  _296
REMARK  116  A    between atoms: _296  and  _297
REMARK  117  A    between atoms: _300  and  _302
REMARK  118  A    between atoms: _302  and  _303
REMARK  119  A    between atoms: _302  and  _305
REMARK  120  A    between atoms: _307  and  _309
REMARK  121  A    between atoms: _309  and  _310
REMARK  122  A    between atoms: _309  and  _312
REMARK  123  A    between atoms: _312  and  _313
REMARK  124  A    between atoms: _313  and  _314
REMARK  125  A    between atoms: _319  and  _321
REMARK  126  A    between atoms: _321  and  _322
REMARK  127  A    between atoms: _321  and  _324
REMARK  128  A    between atoms: _324  and  _325
REMARK  129  A    between atoms: _325  and  _326
REMARK  130  A    between atoms: _329  and  _331
REMARK  131  A    between atoms: _331  and  _332
REMARK  132  A    between atoms: _334  and  _336
REMARK  133  A    between atoms: _336  and  _337
REMARK  134  A    between atoms: _336  and  _339
REMARK  135  A    between atoms: _339  and  _340
REMARK  136  A    between atoms: _345  and  _347
REMARK  137  A    between atoms: _347  and  _348
REMARK  138  A    between atoms: _347  and  _350
REMARK  139  A    between atoms: _350  and  _351
REMARK  140  A    between atoms: _354  and  _356
REMARK  141  A    between atoms: _356  and  _357
REMARK  142  A    between atoms: _356  and  _359
REMARK  143  A    between atoms: _359  and  _360
REMARK  144  A    between atoms: _363  and  _365
REMARK  145  A    between atoms: _365  and  _366
REMARK  146  A    between atoms: _365  and  _368
REMARK  147  A    between atoms: _368  and  _369
REMARK  148  A    between atoms: _369  and  _370
REMARK  149  A    between atoms: _372  and  _374
REMARK  150  A    between atoms: _374  and  _375
REMARK  151  A    between atoms: _374  and  _377
REMARK  152  A    between atoms: _377  and  _378
REMARK  153  A    between atoms: _381  and  _383
REMARK  154  A    between atoms: _383  and  _384
REMARK  155  A    between atoms: _383  and  _386
REMARK  156  A    between atoms: _386  and  _387
REMARK  157  A    between atoms: _390  and  _392
REMARK  158  A    between atoms: _392  and  _393
REMARK  159  A    between atoms: _392  and  _395
REMARK  160  A    between atoms: _395  and  _396
REMARK  161  A    between atoms: _396  and  _397
REMARK  162  A    between atoms: _400  and  _402
REMARK  163  A    between atoms: _402  and  _403
REMARK  164  A    between atoms: _402  and  _405
REMARK  165  A    between atoms: _405  and  _406
REMARK  166  A    between atoms: _411  and  _412
REMARK  167  A    between atoms: _414  and  _416
REMARK  168  A    between atoms: _416  and  _417
REMARK  169  A    between atoms: _416  and  _419
REMARK  170  A    between atoms: _419  and  _420
REMARK  171  A    between atoms: _426  and  _428
REMARK  172  A    between atoms: _428  and  _429
REMARK  173  A    between atoms: _428  and  _431
REMARK  174  A    between atoms: _431  and  _432
REMARK  175  A    between atoms: _437  and  _439
REMARK  176  A    between atoms: _439  and  _440
REMARK  177  A    between atoms: _439  and  _442
REMARK  178  A    between atoms: _442  and  _443
REMARK  179  A    between atoms: _443  and  _444
REMARK  180  A    between atoms: _447  and  _449
REMARK  181  A    between atoms: _449  and  _450
REMARK  182  A    between atoms: _449  and  _452
REMARK  183  A    between atoms: _452  and  _453
REMARK  184  A    between atoms: _458  and  _459
REMARK  185  A    between atoms: _461  and  _463
REMARK  186  A    between atoms: _463  and  _464
REMARK  187  A    between atoms: _463  and  _466
REMARK  188  A    between atoms: _466  and  _467
REMARK  189  A    between atoms: _470  and  _472
REMARK  190  A    between atoms: _472  and  _473
REMARK  191  A    between atoms: _472  and  _475
REMARK  192  A    between atoms: _475  and  _476
REMARK  193  A    between atoms: _481  and  _482
REMARK  194  A    between atoms: _484  and  _486
REMARK  195  A    between atoms: _486  and  _487
REMARK  196  A    between atoms: _486  and  _489
REMARK  197  A    between atoms: _489  and  _490
REMARK  198  A    between atoms: _493  and  _494
REMARK  199  A    between atoms: _499  and  _501
REMARK  200  A    between atoms: _501  and  _502
REMARK  201  A    between atoms: _501  and  _504
REMARK  202  A    between atoms: _504  and  _505
REMARK  203  A    between atoms: _511  and  _513
REMARK  204  A    between atoms: _513  and  _514
REMARK  205  A    between atoms: _513  and  _516
REMARK  206  A    between atoms: _516  and  _517
REMARK  207  A    between atoms: _523  and  _525
REMARK  208  A    between atoms: _525  and  _526
REMARK  209  A    between atoms: _525  and  _528
REMARK  210  A    between atoms: _528  and  _529
REMARK  211  A    between atoms: _531  and  _533
REMARK  212  A    between atoms: _533  and  _534
REMARK  213  A    between atoms: _533  and  _536
REMARK  214  A    between atoms: _536  and  _537
REMARK  215  A    between atoms: _540  and  _542
REMARK  216  A    between atoms: _542  and  _543
REMARK  217  A    between atoms: _542  and  _545
REMARK  218  A    between atoms: _545  and  _546
REMARK  219  A    between atoms: _556  and  _558
REMARK  220  A    between atoms: _558  and  _559
REMARK  221  A    between atoms: _561  and  _563
REMARK  222  A    between atoms: _563  and  _564
REMARK  223  A    between atoms: _563  and  _566
REMARK  224  A    between atoms: _566  and  _567
REMARK  225  A    between atoms: _577  and  _579
REMARK  226  A    between atoms: _579  and  _580
REMARK  227  A    between atoms: _579  and  _582
REMARK  228  A    between atoms: _582  and  _583
REMARK  229  A    between atoms: _585  and  _587
REMARK  230  A    between atoms: _587  and  _588
REMARK  231  A    between atoms: _587  and  _590
REMARK  232  A    between atoms: _590  and  _591
REMARK  233  A    between atoms: _591  and  _592
REMARK  234  A    between atoms: _597  and  _599
REMARK  235  A    between atoms: _599  and  _600
REMARK  236  A    between atoms: _599  and  _602
REMARK  237  A    between atoms: _602  and  _603
REMARK  238  A    between atoms: _605  and  _607
REMARK  239  A    between atoms: _607  and  _608
REMARK  240  A    between atoms: _607  and  _610
REMARK  241  A    between atoms: _610  and  _611
REMARK  242  A    between atoms: _614  and  _616
REMARK  243  A    between atoms: _616  and  _617
REMARK  244  A    between atoms: _616  and  _619
REMARK  245  A    between atoms: _619  and  _620
REMARK  246  A    between atoms: _620  and  _621
REMARK  247  A    between atoms: _624  and  _626
REMARK  248  A    between atoms: _626  and  _627
REMARK  249  A    between atoms: _626  and  _629
REMARK  250  A    between atoms: _629  and  _630
REMARK  251  A    between atoms: _636  and  _638
REMARK  252  A    between atoms: _638  and  _639
REMARK  253  A    between atoms: _641  and  _643
REMARK  254  A    between atoms: _643  and  _644
REMARK  255  A    between atoms: _643  and  _646
REMARK  256  A    between atoms: _646  and  _647
REMARK  257  A    between atoms: _652  and  _653
REMARK  258  A    between atoms: _655  and  _657
REMARK  259  A    between atoms: _657  and  _658
REMARK  260  A    between atoms: _657  and  _660
REMARK  261  A    between atoms: _660  and  _661
REMARK  262  A    between atoms: _666  and  _667
REMARK  263  A    between atoms: _669  and  _671
REMARK  264  A    between atoms: _671  and  _672
REMARK  265  A    between atoms: _671  and  _674
REMARK  266  A    between atoms: _674  and  _675
REMARK  267  A    between atoms: _675  and  _676
REMARK  268  A    between atoms: _676  and  _677
REMARK                            x       y       z     vdW  Elec       q    Type
REMARK                         _______ _______ _______ _____ _____    ______ ____
ROOT
ATOM      1  O   HOH     1     -16.794  12.794  -5.474  0.00  0.00    +0.000 OA
ENDROOT
TORSDOF 0
REMARK  Name = ../refined-set-2016/3zm9/3zm9_pocket.pdb
REMARK  268 active torsions:
REMARK  status: ('A' for Active; 'I' for Inactive)
REMARK    1  A    between atoms: _1  and  _3
REMARK    2  A    between atoms: _3  and  _4
REMARK    3  A    between atoms: _3  and  _6
REMARK    4  A    between atoms: _6  and  _7
REMARK    5  A    between atoms: _10  and  _12
REMARK    6  A    between atoms: _12  and  _13
REMARK    7  A    between atoms: _12  and  _15
REMARK    8  A    between atoms: _15  and  _16
REMARK    9  A    between atoms: _16  and  _17
REMARK   10  A    between atoms: _17  and  _18
REMARK   11  A    between atoms: _27  and  _29
REMARK   12  A    between atoms: _29  and  _30
REMARK   13  A    between atoms: _29  and  _32
REMARK   14  A    between atoms: _32  and  _33
REMARK   15  A    between atoms: _38  and  _40
REMARK   16  A    between atoms: _40  and  _41
REMARK   17  A    between atoms: _40  and  _43
REMARK   18  A    between atoms: _43  and  _44
REMARK   19  A    between atoms: _47  and  _49
REMARK   20  A    between atoms: _49  and  _50
REMARK   21  A    between atoms: _49  and  _52
REMARK   22  A    between atoms: _52  and  _53
REMARK   23  A    between atoms: _53  and  _54
REMARK   24  A    between atoms: _59  and  _61
REMARK   25  A    between atoms: _61  and  _62
REMARK   26  A    between atoms: _61  and  _64
REMARK   27  A    between atoms: _67  and  _69
REMARK   28  A    between atoms: _69  and  _70
REMARK   29  A    between atoms: _69  and  _72
REMARK   30  A    between atoms: _72  and  _73
REMARK   31  A    between atoms: _76  and  _78
REMARK   32  A    between atoms: _78  and  _79
REMARK   33  A    between atoms: _78  and  _81
REMARK   34  A    between atoms: _81  and  _82
REMARK   35  A    between atoms: _85  and  _87
REMARK   36  A    between atoms: _87  and  _88
REMARK   37  A    between atoms: _87  and  _90
REMARK   38  A    between atoms: _90  and  _91
REMARK   39  A    between atoms: _91  and  _92
REMARK   40  A    between atoms: _92  and  _93
REMARK   41  A    between atoms: _102  and  _104
REMARK   42  A    between atoms: _104  and  _105
REMARK   43  A    between atoms: _104  and  _107
REMARK   44  A    between atoms: _107  and  _108
REMARK   45  A    between atoms: _114  and  _116
REMARK   46  A    between atoms: _116  and  _117
REMARK   47  A    between atoms: _120  and  _121
REMARK   48  A    between atoms: _126  and  _128
REMARK   49  A    between atoms: _128  and  _129
REMARK   50  A    between atoms: _128  and  _131
REMARK   51  A    between atoms: _131  and  _132
REMARK   52  A    between atoms: _132  and  _133
REMARK   53  A    between atoms: _133  and  _134
REMARK   54  A    between atoms: _134  and  _135
REMARK   55  A    between atoms: _139  and  _141
REMARK   56  A    between atoms: _141  and  _142
REMARK   57  A    between atoms: _141  and  _144
REMARK   58  A    between atoms: _144  and  _145
REMARK   59  A    between atoms: _145  and  _146
REMARK   60  A    between atoms: _146  and  _147
REMARK   61  A    between atoms: _156  and  _158
REMARK   62  A    between atoms: _158  and  _159
REMARK   63  A    between atoms: _158  and  _161
REMARK   64  A    between atoms: _161  and  _162
REMARK   65  A    between atoms: _165  and  _167
REMARK   66  A    between atoms: _167  and  _168
REMARK   67  A    between atoms: _167  and  _170
REMARK   68  A    between atoms: _170  and  _171
REMARK   69  A    between atoms: _171  and  _172
REMARK   70  A    between atoms: _175  and  _177
REMARK   71  A    between atoms: _177  and  _178
REMARK   72  A    between atoms: _177  and  _180
REMARK   73  A    between atoms: _180  and  _181
REMARK   74  A    between atoms: _181  and  _182
REMARK   75  A    between atoms: _187  and  _189
REMARK   76  A    between atoms: _189  and  _190
REMARK   77  A    between atoms: _189  and  _192
REMARK   78  A    between atoms: _192  and  _193
REMARK   79  A    between atoms: _199  and  _201
REMARK   80  A    between atoms: _201  and  _202
REMARK   81  A    between atoms: _201  and  _204
REMARK   82  A    between atoms: _204  and  _205
REMARK   83  A    between atoms: _209  and  _210
REMARK   84  A    between atoms: _215  and  _217
REMARK   85  A    between atoms: _217  and  _218
REMARK   86  A    between atoms: _217  and  _220
REMARK   87  A    between atoms: _220  and  _221
REMARK   88  A    between atoms: _223  and  _225
REMARK   89  A    between atoms: _225  and  _226
REMARK   90  A    between atoms: _225  and  _228
REMARK   91  A    between atoms: _228  and  _229
REMARK   92  A    between atoms: _229  and  _230
REMARK   93  A    between atoms: _230  and  _231
REMARK   94  A    between atoms: _240  and  _242
REMARK   95  A    between atoms: _242  and  _243
REMARK   96  A    between atoms: _242  and  _245
REMARK   97  A    between atoms: _245  and  _246
REMARK   98  A    between atoms: _246  and  _247
REMARK   99  A    between atoms: _247  and  _248
REMARK  100  A    between atoms: _257  and  _259
REMARK  101  A    between atoms: _259  and  _260
REMARK  102  A    between atoms: _259  and  _262
REMARK  103  A    between atoms: _262  and  _263
REMARK  104  A    between atoms: _266  and  _268
REMARK  105  A    between atoms: _268  and  _269
REMARK  106  A    between atoms: _268  and  _271
REMARK  107  A    between atoms: _271  and  _272
REMARK  108  A    between atoms: _277  and  _278
REMARK  109  A    between atoms: _280  and  _282
REMARK  110  A    between atoms: _282  and  _283
REMARK  111  A    between atoms: _282  and  _285
REMARK  112  A    between atoms: _285  and  _286
REMARK  113  A    between atoms: _291  and  _293
REMARK  114  A    between atoms: _293  and  _294
REMARK  115  A    between atoms: _293  and  _296
REMARK  116  A    between atoms: _296  and  _297
REMARK  117  A    between atoms: _300  and  _302
REMARK  118  A    between atoms: _302  and  _303
REMARK  119  A    between atoms: _302  and  _305
REMARK  120  A    between atoms: _307  and  _309
REMARK  121  A    between atoms: _309  and  _310
REMARK  122  A    between atoms: _309  and  _312
REMARK  123  A    between atoms: _312  and  _313
REMARK  124  A    between atoms: _313  and  _314
REMARK  125  A    between atoms: _319  and  _321
REMARK  126  A    between atoms: _321  and  _322
REMARK  127  A    between atoms: _321  and  _324
REMARK  128  A    between atoms: _324  and  _325
REMARK  129  A    between atoms: _325  and  _326
REMARK  130  A    between atoms: _329  and  _331
REMARK  131  A    between atoms: _331  and  _332
REMARK  132  A    between atoms: _334  and  _336
REMARK  133  A    between atoms: _336  and  _337
REMARK  134  A    between atoms: _336  and  _339
REMARK  135  A    between atoms: _339  and  _340
REMARK  136  A    between atoms: _345  and  _347
REMARK  137  A    between atoms: _347  and  _348
REMARK  138  A    between atoms: _347  and  _350
REMARK  139  A    between atoms: _350  and  _351
REMARK  140  A    between atoms: _354  and  _356
REMARK  141  A    between atoms: _356  and  _357
REMARK  142  A    between atoms: _356  and  _359
REMARK  143  A    between atoms: _359  and  _360
REMARK  144  A    between atoms: _363  and  _365
REMARK  145  A    between atoms: _365  and  _366
REMARK  146  A    between atoms: _365  and  _368
REMARK  147  A    between atoms: _368  and  _369
REMARK  148  A    between atoms: _369  and  _370
REMARK  149  A    between atoms: _372  and  _374
REMARK  150  A    between atoms: _374  and  _375
REMARK  151  A    between atoms: _374  and  _377
REMARK  152  A    between atoms: _377  and  _378
REMARK  153  A    between atoms: _381  and  _383
REMARK  154  A    between atoms: _383  and  _384
REMARK  155  A    between atoms: _383  and  _386
REMARK  156  A    between atoms: _386  and  _387
REMARK  157  A    between atoms: _390  and  _392
REMARK  158  A    between atoms: _392  and  _393
REMARK  159  A    between atoms: _392  and  _395
REMARK  160  A    between atoms: _395  and  _396
REMARK  161  A    between atoms: _396  and  _397
REMARK  162  A    between atoms: _400  and  _402
REMARK  163  A    between atoms: _402  and  _403
REMARK  164  A    between atoms: _402  and  _405
REMARK  165  A    between atoms: _405  and  _406
REMARK  166  A    between atoms: _411  and  _412
REMARK  167  A    between atoms: _414  and  _416
REMARK  168  A    between atoms: _416  and  _417
REMARK  169  A    between atoms: _416  and  _419
REMARK  170  A    between atoms: _419  and  _420
REMARK  171  A    between atoms: _426  and  _428
REMARK  172  A    between atoms: _428  and  _429
REMARK  173  A    between atoms: _428  and  _431
REMARK  174  A    between atoms: _431  and  _432
REMARK  175  A    between atoms: _437  and  _439
REMARK  176  A    between atoms: _439  and  _440
REMARK  177  A    between atoms: _439  and  _442
REMARK  178  A    between atoms: _442  and  _443
REMARK  179  A    between atoms: _443  and  _444
REMARK  180  A    between atoms: _447  and  _449
REMARK  181  A    between atoms: _449  and  _450
REMARK  182  A    between atoms: _449  and  _452
REMARK  183  A    between atoms: _452  and  _453
REMARK  184  A    between atoms: _458  and  _459
REMARK  185  A    between atoms: _461  and  _463
REMARK  186  A    between atoms: _463  and  _464
REMARK  187  A    between atoms: _463  and  _466
REMARK  188  A    between atoms: _466  and  _467
REMARK  189  A    between atoms: _470  and  _472
REMARK  190  A    between atoms: _472  and  _473
REMARK  191  A    between atoms: _472  and  _475
REMARK  192  A    between atoms: _475  and  _476
REMARK  193  A    between atoms: _481  and  _482
REMARK  194  A    between atoms: _484  and  _486
REMARK  195  A    between atoms: _486  and  _487
REMARK  196  A    between atoms: _486  and  _489
REMARK  197  A    between atoms: _489  and  _490
REMARK  198  A    between atoms: _493  and  _494
REMARK  199  A    between atoms: _499  and  _501
REMARK  200  A    between atoms: _501  and  _502
REMARK  201  A    between atoms: _501  and  _504
REMARK  202  A    between atoms: _504  and  _505
REMARK  203  A    between atoms: _511  and  _513
REMARK  204  A    between atoms: _513  and  _514
REMARK  205  A    between atoms: _513  and  _516
REMARK  206  A    between atoms: _516  and  _517
REMARK  207  A    between atoms: _523  and  _525
REMARK  208  A    between atoms: _525  and  _526
REMARK  209  A    between atoms: _525  and  _528
REMARK  210  A    between atoms: _528  and  _529
REMARK  211  A    between atoms: _531  and  _533
REMARK  212  A    between atoms: _533  and  _534
REMARK  213  A    between atoms: _533  and  _536
REMARK  214  A    between atoms: _536  and  _537
REMARK  215  A    between atoms: _540  and  _542
REMARK  216  A    between atoms: _542  and  _543
REMARK  217  A    between atoms: _542  and  _545
REMARK  218  A    between atoms: _545  and  _546
REMARK  219  A    between atoms: _556  and  _558
REMARK  220  A    between atoms: _558  and  _559
REMARK  221  A    between atoms: _561  and  _563
REMARK  222  A    between atoms: _563  and  _564
REMARK  223  A    between atoms: _563  and  _566
REMARK  224  A    between atoms: _566  and  _567
REMARK  225  A    between atoms: _577  and  _579
REMARK  226  A    between atoms: _579  and  _580
REMARK  227  A    between atoms: _579  and  _582
REMARK  228  A    between atoms: _582  and  _583
REMARK  229  A    between atoms: _585  and  _587
REMARK  230  A    between atoms: _587  and  _588
REMARK  231  A    between atoms: _587  and  _590
REMARK  232  A    between atoms: _590  and  _591
REMARK  233  A    between atoms: _591  and  _592
REMARK  234  A    between atoms: _597  and  _599
REMARK  235  A    between atoms: _599  and  _600
REMARK  236  A    between atoms: _599  and  _602
REMARK  237  A    between atoms: _602  and  _603
REMARK  238  A    between atoms: _605  and  _607
REMARK  239  A    between atoms: _607  and  _608
REMARK  240  A    between atoms: _607  and  _610
REMARK  241  A    between atoms: _610  and  _611
REMARK  242  A    between atoms: _614  and  _616
REMARK  243  A    between atoms: _616  and  _617
REMARK  244  A    between atoms: _616  and  _619
REMARK  245  A    between atoms: _619  and  _620
REMARK  246  A    between atoms: _620  and  _621
REMARK  247  A    between atoms: _624  and  _626
REMARK  248  A    between atoms: _626  and  _627
REMARK  249  A    between atoms: _626  and  _629
REMARK  250  A    between atoms: _629  and  _630
REMARK  251  A    between atoms: _636  and  _638
REMARK  252  A    between atoms: _638  and  _639
REMARK  253  A    between atoms: _641  and  _643
REMARK  254  A    between atoms: _643  and  _644
REMARK  255  A    between atoms: _643  and  _646
REMARK  256  A    between atoms: _646  and  _647
REMARK  257  A    between atoms: _652  and  _653
REMARK  258  A    between atoms: _655  and  _657
REMARK  259  A    between atoms: _657  and  _658
REMARK  260  A    between atoms: _657  and  _660
REMARK  261  A    between atoms: _660  and  _661
REMARK  262  A    between atoms: _666  and  _667
REMARK  263  A    between atoms: _669  and  _671
REMARK  264  A    between atoms: _671  and  _672
REMARK  265  A    between atoms: _671  and  _674
REMARK  266  A    between atoms: _674  and  _675
REMARK  267  A    between atoms: _675  and  _676
REMARK  268  A    between atoms: _676  and  _677
REMARK                            x       y       z     vdW  Elec       q    Type
REMARK                         _______ _______ _______ _____ _____    ______ ____
ROOT
ATOM      1  O   HOH     1     -14.457   1.375 -12.472  0.00  0.00    +0.000 OA
ENDROOT
TORSDOF 0
REMARK  Name = ../refined-set-2016/3zm9/3zm9_pocket.pdb
REMARK  268 active torsions:
REMARK  status: ('A' for Active; 'I' for Inactive)
REMARK    1  A    between atoms: _1  and  _3
REMARK    2  A    between atoms: _3  and  _4
REMARK    3  A    between atoms: _3  and  _6
REMARK    4  A    between atoms: _6  and  _7
REMARK    5  A    between atoms: _10  and  _12
REMARK    6  A    between atoms: _12  and  _13
REMARK    7  A    between atoms: _12  and  _15
REMARK    8  A    between atoms: _15  and  _16
REMARK    9  A    between atoms: _16  and  _17
REMARK   10  A    between atoms: _17  and  _18
REMARK   11  A    between atoms: _27  and  _29
REMARK   12  A    between atoms: _29  and  _30
REMARK   13  A    between atoms: _29  and  _32
REMARK   14  A    between atoms: _32  and  _33
REMARK   15  A    between atoms: _38  and  _40
REMARK   16  A    between atoms: _40  and  _41
REMARK   17  A    between atoms: _40  and  _43
REMARK   18  A    between atoms: _43  and  _44
REMARK   19  A    between atoms: _47  and  _49
REMARK   20  A    between atoms: _49  and  _50
REMARK   21  A    between atoms: _49  and  _52
REMARK   22  A    between atoms: _52  and  _53
REMARK   23  A    between atoms: _53  and  _54
REMARK   24  A    between atoms: _59  and  _61
REMARK   25  A    between atoms: _61  and  _62
REMARK   26  A    between atoms: _61  and  _64
REMARK   27  A    between atoms: _67  and  _69
REMARK   28  A    between atoms: _69  and  _70
REMARK   29  A    between atoms: _69  and  _72
REMARK   30  A    between atoms: _72  and  _73
REMARK   31  A    between atoms: _76  and  _78
REMARK   32  A    between atoms: _78  and  _79
REMARK   33  A    between atoms: _78  and  _81
REMARK   34  A    between atoms: _81  and  _82
REMARK   35  A    between atoms: _85  and  _87
REMARK   36  A    between atoms: _87  and  _88
REMARK   37  A    between atoms: _87  and  _90
REMARK   38  A    between atoms: _90  and  _91
REMARK   39  A    between atoms: _91  and  _92
REMARK   40  A    between atoms: _92  and  _93
REMARK   41  A    between atoms: _102  and  _104
REMARK   42  A    between atoms: _104  and  _105
REMARK   43  A    between atoms: _104  and  _107
REMARK   44  A    between atoms: _107  and  _108
REMARK   45  A    between atoms: _114  and  _116
REMARK   46  A    between atoms: _116  and  _117
REMARK   47  A    between atoms: _120  and  _121
REMARK   48  A    between atoms: _126  and  _128
REMARK   49  A    between atoms: _128  and  _129
REMARK   50  A    between atoms: _128  and  _131
REMARK   51  A    between atoms: _131  and  _132
REMARK   52  A    between atoms: _132  and  _133
REMARK   53  A    between atoms: _133  and  _134
REMARK   54  A    between atoms: _134  and  _135
REMARK   55  A    between atoms: _139  and  _141
REMARK   56  A    between atoms: _141  and  _142
REMARK   57  A    between atoms: _141  and  _144
REMARK   58  A    between atoms: _144  and  _145
REMARK   59  A    between atoms: _145  and  _146
REMARK   60  A    between atoms: _146  and  _147
REMARK   61  A    between atoms: _156  and  _158
REMARK   62  A    between atoms: _158  and  _159
REMARK   63  A    between atoms: _158  and  _161
REMARK   64  A    between atoms: _161  and  _162
REMARK   65  A    between atoms: _165  and  _167
REMARK   66  A    between atoms: _167  and  _168
REMARK   67  A    between atoms: _167  and  _170
REMARK   68  A    between atoms: _170  and  _171
REMARK   69  A    between atoms: _171  and  _172
REMARK   70  A    between atoms: _175  and  _177
REMARK   71  A    between atoms: _177  and  _178
REMARK   72  A    between atoms: _177  and  _180
REMARK   73  A    between atoms: _180  and  _181
REMARK   74  A    between atoms: _181  and  _182
REMARK   75  A    between atoms: _187  and  _189
REMARK   76  A    between atoms: _189  and  _190
REMARK   77  A    between atoms: _189  and  _192
REMARK   78  A    between atoms: _192  and  _193
REMARK   79  A    between atoms: _199  and  _201
REMARK   80  A    between atoms: _201  and  _202
REMARK   81  A    between atoms: _201  and  _204
REMARK   82  A    between atoms: _204  and  _205
REMARK   83  A    between atoms: _209  and  _210
REMARK   84  A    between atoms: _215  and  _217
REMARK   85  A    between atoms: _217  and  _218
REMARK   86  A    between atoms: _217  and  _220
REMARK   87  A    between atoms: _220  and  _221
REMARK   88  A    between atoms: _223  and  _225
REMARK   89  A    between atoms: _225  and  _226
REMARK   90  A    between atoms: _225  and  _228
REMARK   91  A    between atoms: _228  and  _229
REMARK   92  A    between atoms: _229  and  _230
REMARK   93  A    between atoms: _230  and  _231
REMARK   94  A    between atoms: _240  and  _242
REMARK   95  A    between atoms: _242  and  _243
REMARK   96  A    between atoms: _242  and  _245
REMARK   97  A    between atoms: _245  and  _246
REMARK   98  A    between atoms: _246  and  _247
REMARK   99  A    between atoms: _247  and  _248
REMARK  100  A    between atoms: _257  and  _259
REMARK  101  A    between atoms: _259  and  _260
REMARK  102  A    between atoms: _259  and  _262
REMARK  103  A    between atoms: _262  and  _263
REMARK  104  A    between atoms: _266  and  _268
REMARK  105  A    between atoms: _268  and  _269
REMARK  106  A    between atoms: _268  and  _271
REMARK  107  A    between atoms: _271  and  _272
REMARK  108  A    between atoms: _277  and  _278
REMARK  109  A    between atoms: _280  and  _282
REMARK  110  A    between atoms: _282  and  _283
REMARK  111  A    between atoms: _282  and  _285
REMARK  112  A    between atoms: _285  and  _286
REMARK  113  A    between atoms: _291  and  _293
REMARK  114  A    between atoms: _293  and  _294
REMARK  115  A    between atoms: _293  and  _296
REMARK  116  A    between atoms: _296  and  _297
REMARK  117  A    between atoms: _300  and  _302
REMARK  118  A    between atoms: _302  and  _303
REMARK  119  A    between atoms: _302  and  _305
REMARK  120  A    between atoms: _307  and  _309
REMARK  121  A    between atoms: _309  and  _310
REMARK  122  A    between atoms: _309  and  _312
REMARK  123  A    between atoms: _312  and  _313
REMARK  124  A    between atoms: _313  and  _314
REMARK  125  A    between atoms: _319  and  _321
REMARK  126  A    between atoms: _321  and  _322
REMARK  127  A    between atoms: _321  and  _324
REMARK  128  A    between atoms: _324  and  _325
REMARK  129  A    between atoms: _325  and  _326
REMARK  130  A    between atoms: _329  and  _331
REMARK  131  A    between atoms: _331  and  _332
REMARK  132  A    between atoms: _334  and  _336
REMARK  133  A    between atoms: _336  and  _337
REMARK  134  A    between atoms: _336  and  _339
REMARK  135  A    between atoms: _339  and  _340
REMARK  136  A    between atoms: _345  and  _347
REMARK  137  A    between atoms: _347  and  _348
REMARK  138  A    between atoms: _347  and  _350
REMARK  139  A    between atoms: _350  and  _351
REMARK  140  A    between atoms: _354  and  _356
REMARK  141  A    between atoms: _356  and  _357
REMARK  142  A    between atoms: _356  and  _359
REMARK  143  A    between atoms: _359  and  _360
REMARK  144  A    between atoms: _363  and  _365
REMARK  145  A    between atoms: _365  and  _366
REMARK  146  A    between atoms: _365  and  _368
REMARK  147  A    between atoms: _368  and  _369
REMARK  148  A    between atoms: _369  and  _370
REMARK  149  A    between atoms: _372  and  _374
REMARK  150  A    between atoms: _374  and  _375
REMARK  151  A    between atoms: _374  and  _377
REMARK  152  A    between atoms: _377  and  _378
REMARK  153  A    between atoms: _381  and  _383
REMARK  154  A    between atoms: _383  and  _384
REMARK  155  A    between atoms: _383  and  _386
REMARK  156  A    between atoms: _386  and  _387
REMARK  157  A    between atoms: _390  and  _392
REMARK  158  A    between atoms: _392  and  _393
REMARK  159  A    between atoms: _392  and  _395
REMARK  160  A    between atoms: _395  and  _396
REMARK  161  A    between atoms: _396  and  _397
REMARK  162  A    between atoms: _400  and  _402
REMARK  163  A    between atoms: _402  and  _403
REMARK  164  A    between atoms: _402  and  _405
REMARK  165  A    between atoms: _405  and  _406
REMARK  166  A    between atoms: _411  and  _412
REMARK  167  A    between atoms: _414  and  _416
REMARK  168  A    between atoms: _416  and  _417
REMARK  169  A    between atoms: _416  and  _419
REMARK  170  A    between atoms: _419  and  _420
REMARK  171  A    between atoms: _426  and  _428
REMARK  172  A    between atoms: _428  and  _429
REMARK  173  A    between atoms: _428  and  _431
REMARK  174  A    between atoms: _431  and  _432
REMARK  175  A    between atoms: _437  and  _439
REMARK  176  A    between atoms: _439  and  _440
REMARK  177  A    between atoms: _439  and  _442
REMARK  178  A    between atoms: _442  and  _443
REMARK  179  A    between atoms: _443  and  _444
REMARK  180  A    between atoms: _447  and  _449
REMARK  181  A    between atoms: _449  and  _450
REMARK  182  A    between atoms: _449  and  _452
REMARK  183  A    between atoms: _452  and  _453
REMARK  184  A    between atoms: _458  and  _459
REMARK  185  A    between atoms: _461  and  _463
REMARK  186  A    between atoms: _463  and  _464
REMARK  187  A    between atoms: _463  and  _466
REMARK  188  A    between atoms: _466  and  _467
REMARK  189  A    between atoms: _470  and  _472
REMARK  190  A    between atoms: _472  and  _473
REMARK  191  A    between atoms: _472  and  _475
REMARK  192  A    between atoms: _475  and  _476
REMARK  193  A    between atoms: _481  and  _482
REMARK  194  A    between atoms: _484  and  _486
REMARK  195  A    between atoms: _486  and  _487
REMARK  196  A    between atoms: _486  and  _489
REMARK  197  A    between atoms: _489  and  _490
REMARK  198  A    between atoms: _493  and  _494
REMARK  199  A    between atoms: _499  and  _501
REMARK  200  A    between atoms: _501  and  _502
REMARK  201  A    between atoms: _501  and  _504
REMARK  202  A    between atoms: _504  and  _505
REMARK  203  A    between atoms: _511  and  _513
REMARK  204  A    between atoms: _513  and  _514
REMARK  205  A    between atoms: _513  and  _516
REMARK  206  A    between atoms: _516  and  _517
REMARK  207  A    between atoms: _523  and  _525
REMARK  208  A    between atoms: _525  and  _526
REMARK  209  A    between atoms: _525  and  _528
REMARK  210  A    between atoms: _528  and  _529
REMARK  211  A    between atoms: _531  and  _533
REMARK  212  A    between atoms: _533  and  _534
REMARK  213  A    between atoms: _533  and  _536
REMARK  214  A    between atoms: _536  and  _537
REMARK  215  A    between atoms: _540  and  _542
REMARK  216  A    between atoms: _542  and  _543
REMARK  217  A    between atoms: _542  and  _545
REMARK  218  A    between atoms: _545  and  _546
REMARK  219  A    between atoms: _556  and  _558
REMARK  220  A    between atoms: _558  and  _559
REMARK  221  A    between atoms: _561  and  _563
REMARK  222  A    between atoms: _563  and  _564
REMARK  223  A    between atoms: _563  and  _566
REMARK  224  A    between atoms: _566  and  _567
REMARK  225  A    between atoms: _577  and  _579
REMARK  226  A    between atoms: _579  and  _580
REMARK  227  A    between atoms: _579  and  _582
REMARK  228  A    between atoms: _582  and  _583
REMARK  229  A    between atoms: _585  and  _587
REMARK  230  A    between atoms: _587  and  _588
REMARK  231  A    between atoms: _587  and  _590
REMARK  232  A    between atoms: _590  and  _591
REMARK  233  A    between atoms: _591  and  _592
REMARK  234  A    between atoms: _597  and  _599
REMARK  235  A    between atoms: _599  and  _600
REMARK  236  A    between atoms: _599  and  _602
REMARK  237  A    between atoms: _602  and  _603
REMARK  238  A    between atoms: _605  and  _607
REMARK  239  A    between atoms: _607  and  _608
REMARK  240  A    between atoms: _607  and  _610
REMARK  241  A    between atoms: _610  and  _611
REMARK  242  A    between atoms: _614  and  _616
REMARK  243  A    between atoms: _616  and  _617
REMARK  244  A    between atoms: _616  and  _619
REMARK  245  A    between atoms: _619  and  _620
REMARK  246  A    between atoms: _620  and  _621
REMARK  247  A    between atoms: _624  and  _626
REMARK  248  A    between atoms: _626  and  _627
REMARK  249  A    between atoms: _626  and  _629
REMARK  250  A    between atoms: _629  and  _630
REMARK  251  A    between atoms: _636  and  _638
REMARK  252  A    between atoms: _638  and  _639
REMARK  253  A    between atoms: _641  and  _643
REMARK  254  A    between atoms: _643  and  _644
REMARK  255  A    between atoms: _643  and  _646
REMARK  256  A    between atoms: _646  and  _647
REMARK  257  A    between atoms: _652  and  _653
REMARK  258  A    between atoms: _655  and  _657
REMARK  259  A    between atoms: _657  and  _658
REMARK  260  A    between atoms: _657  and  _660
REMARK  261  A    between atoms: _660  and  _661
REMARK  262  A    between atoms: _666  and  _667
REMARK  263  A    between atoms: _669  and  _671
REMARK  264  A    between atoms: _671  and  _672
REMARK  265  A    between atoms: _671  and  _674
REMARK  266  A    between atoms: _674  and  _675
REMARK  267  A    between atoms: _675  and  _676
REMARK  268  A    between atoms: _676  and  _677
REMARK                            x       y       z     vdW  Elec       q    Type
REMARK                         _______ _______ _______ _____ _____    ______ ____
ROOT
ATOM      1  O   HOH     1      -8.273  11.358  -8.409  0.00  0.00    +0.000 OA
ENDROOT
TORSDOF 0
REMARK  Name = ../refined-set-2016/3zm9/3zm9_pocket.pdb
REMARK  268 active torsions:
REMARK  status: ('A' for Active; 'I' for Inactive)
REMARK    1  A    between atoms: _1  and  _3
REMARK    2  A    between atoms: _3  and  _4
REMARK    3  A    between atoms: _3  and  _6
REMARK    4  A    between atoms: _6  and  _7
REMARK    5  A    between atoms: _10  and  _12
REMARK    6  A    between atoms: _12  and  _13
REMARK    7  A    between atoms: _12  and  _15
REMARK    8  A    between atoms: _15  and  _16
REMARK    9  A    between atoms: _16  and  _17
REMARK   10  A    between atoms: _17  and  _18
REMARK   11  A    between atoms: _27  and  _29
REMARK   12  A    between atoms: _29  and  _30
REMARK   13  A    between atoms: _29  and  _32
REMARK   14  A    between atoms: _32  and  _33
REMARK   15  A    between atoms: _38  and  _40
REMARK   16  A    between atoms: _40  and  _41
REMARK   17  A    between atoms: _40  and  _43
REMARK   18  A    between atoms: _43  and  _44
REMARK   19  A    between atoms: _47  and  _49
REMARK   20  A    between atoms: _49  and  _50
REMARK   21  A    between atoms: _49  and  _52
REMARK   22  A    between atoms: _52  and  _53
REMARK   23  A    between atoms: _53  and  _54
REMARK   24  A    between atoms: _59  and  _61
REMARK   25  A    between atoms: _61  and  _62
REMARK   26  A    between atoms: _61  and  _64
REMARK   27  A    between atoms: _67  and  _69
REMARK   28  A    between atoms: _69  and  _70
REMARK   29  A    between atoms: _69  and  _72
REMARK   30  A    between atoms: _72  and  _73
REMARK   31  A    between atoms: _76  and  _78
REMARK   32  A    between atoms: _78  and  _79
REMARK   33  A    between atoms: _78  and  _81
REMARK   34  A    between atoms: _81  and  _82
REMARK   35  A    between atoms: _85  and  _87
REMARK   36  A    between atoms: _87  and  _88
REMARK   37  A    between atoms: _87  and  _90
REMARK   38  A    between atoms: _90  and  _91
REMARK   39  A    between atoms: _91  and  _92
REMARK   40  A    between atoms: _92  and  _93
REMARK   41  A    between atoms: _102  and  _104
REMARK   42  A    between atoms: _104  and  _105
REMARK   43  A    between atoms: _104  and  _107
REMARK   44  A    between atoms: _107  and  _108
REMARK   45  A    between atoms: _114  and  _116
REMARK   46  A    between atoms: _116  and  _117
REMARK   47  A    between atoms: _120  and  _121
REMARK   48  A    between atoms: _126  and  _128
REMARK   49  A    between atoms: _128  and  _129
REMARK   50  A    between atoms: _128  and  _131
REMARK   51  A    between atoms: _131  and  _132
REMARK   52  A    between atoms: _132  and  _133
REMARK   53  A    between atoms: _133  and  _134
REMARK   54  A    between atoms: _134  and  _135
REMARK   55  A    between atoms: _139  and  _141
REMARK   56  A    between atoms: _141  and  _142
REMARK   57  A    between atoms: _141  and  _144
REMARK   58  A    between atoms: _144  and  _145
REMARK   59  A    between atoms: _145  and  _146
REMARK   60  A    between atoms: _146  and  _147
REMARK   61  A    between atoms: _156  and  _158
REMARK   62  A    between atoms: _158  and  _159
REMARK   63  A    between atoms: _158  and  _161
REMARK   64  A    between atoms: _161  and  _162
REMARK   65  A    between atoms: _165  and  _167
REMARK   66  A    between atoms: _167  and  _168
REMARK   67  A    between atoms: _167  and  _170
REMARK   68  A    between atoms: _170  and  _171
REMARK   69  A    between atoms: _171  and  _172
REMARK   70  A    between atoms: _175  and  _177
REMARK   71  A    between atoms: _177  and  _178
REMARK   72  A    between atoms: _177  and  _180
REMARK   73  A    between atoms: _180  and  _181
REMARK   74  A    between atoms: _181  and  _182
REMARK   75  A    between atoms: _187  and  _189
REMARK   76  A    between atoms: _189  and  _190
REMARK   77  A    between atoms: _189  and  _192
REMARK   78  A    between atoms: _192  and  _193
REMARK   79  A    between atoms: _199  and  _201
REMARK   80  A    between atoms: _201  and  _202
REMARK   81  A    between atoms: _201  and  _204
REMARK   82  A    between atoms: _204  and  _205
REMARK   83  A    between atoms: _209  and  _210
REMARK   84  A    between atoms: _215  and  _217
REMARK   85  A    between atoms: _217  and  _218
REMARK   86  A    between atoms: _217  and  _220
REMARK   87  A    between atoms: _220  and  _221
REMARK   88  A    between atoms: _223  and  _225
REMARK   89  A    between atoms: _225  and  _226
REMARK   90  A    between atoms: _225  and  _228
REMARK   91  A    between atoms: _228  and  _229
REMARK   92  A    between atoms: _229  and  _230
REMARK   93  A    between atoms: _230  and  _231
REMARK   94  A    between atoms: _240  and  _242
REMARK   95  A    between atoms: _242  and  _243
REMARK   96  A    between atoms: _242  and  _245
REMARK   97  A    between atoms: _245  and  _246
REMARK   98  A    between atoms: _246  and  _247
REMARK   99  A    between atoms: _247  and  _248
REMARK  100  A    between atoms: _257  and  _259
REMARK  101  A    between atoms: _259  and  _260
REMARK  102  A    between atoms: _259  and  _262
REMARK  103  A    between atoms: _262  and  _263
REMARK  104  A    between atoms: _266  and  _268
REMARK  105  A    between atoms: _268  and  _269
REMARK  106  A    between atoms: _268  and  _271
REMARK  107  A    between atoms: _271  and  _272
REMARK  108  A    between atoms: _277  and  _278
REMARK  109  A    between atoms: _280  and  _282
REMARK  110  A    between atoms: _282  and  _283
REMARK  111  A    between atoms: _282  and  _285
REMARK  112  A    between atoms: _285  and  _286
REMARK  113  A    between atoms: _291  and  _293
REMARK  114  A    between atoms: _293  and  _294
REMARK  115  A    between atoms: _293  and  _296
REMARK  116  A    between atoms: _296  and  _297
REMARK  117  A    between atoms: _300  and  _302
REMARK  118  A    between atoms: _302  and  _303
REMARK  119  A    between atoms: _302  and  _305
REMARK  120  A    between atoms: _307  and  _309
REMARK  121  A    between atoms: _309  and  _310
REMARK  122  A    between atoms: _309  and  _312
REMARK  123  A    between atoms: _312  and  _313
REMARK  124  A    between atoms: _313  and  _314
REMARK  125  A    between atoms: _319  and  _321
REMARK  126  A    between atoms: _321  and  _322
REMARK  127  A    between atoms: _321  and  _324
REMARK  128  A    between atoms: _324  and  _325
REMARK  129  A    between atoms: _325  and  _326
REMARK  130  A    between atoms: _329  and  _331
REMARK  131  A    between atoms: _331  and  _332
REMARK  132  A    between atoms: _334  and  _336
REMARK  133  A    between atoms: _336  and  _337
REMARK  134  A    between atoms: _336  and  _339
REMARK  135  A    between atoms: _339  and  _340
REMARK  136  A    between atoms: _345  and  _347
REMARK  137  A    between atoms: _347  and  _348
REMARK  138  A    between atoms: _347  and  _350
REMARK  139  A    between atoms: _350  and  _351
REMARK  140  A    between atoms: _354  and  _356
REMARK  141  A    between atoms: _356  and  _357
REMARK  142  A    between atoms: _356  and  _359
REMARK  143  A    between atoms: _359  and  _360
REMARK  144  A    between atoms: _363  and  _365
REMARK  145  A    between atoms: _365  and  _366
REMARK  146  A    between atoms: _365  and  _368
REMARK  147  A    between atoms: _368  and  _369
REMARK  148  A    between atoms: _369  and  _370
REMARK  149  A    between atoms: _372  and  _374
REMARK  150  A    between atoms: _374  and  _375
REMARK  151  A    between atoms: _374  and  _377
REMARK  152  A    between atoms: _377  and  _378
REMARK  153  A    between atoms: _381  and  _383
REMARK  154  A    between atoms: _383  and  _384
REMARK  155  A    between atoms: _383  and  _386
REMARK  156  A    between atoms: _386  and  _387
REMARK  157  A    between atoms: _390  and  _392
REMARK  158  A    between atoms: _392  and  _393
REMARK  159  A    between atoms: _392  and  _395
REMARK  160  A    between atoms: _395  and  _396
REMARK  161  A    between atoms: _396  and  _397
REMARK  162  A    between atoms: _400  and  _402
REMARK  163  A    between atoms: _402  and  _403
REMARK  164  A    between atoms: _402  and  _405
REMARK  165  A    between atoms: _405  and  _406
REMARK  166  A    between atoms: _411  and  _412
REMARK  167  A    between atoms: _414  and  _416
REMARK  168  A    between atoms: _416  and  _417
REMARK  169  A    between atoms: _416  and  _419
REMARK  170  A    between atoms: _419  and  _420
REMARK  171  A    between atoms: _426  and  _428
REMARK  172  A    between atoms: _428  and  _429
REMARK  173  A    between atoms: _428  and  _431
REMARK  174  A    between atoms: _431  and  _432
REMARK  175  A    between atoms: _437  and  _439
REMARK  176  A    between atoms: _439  and  _440
REMARK  177  A    between atoms: _439  and  _442
REMARK  178  A    between atoms: _442  and  _443
REMARK  179  A    between atoms: _443  and  _444
REMARK  180  A    between atoms: _447  and  _449
REMARK  181  A    between atoms: _449  and  _450
REMARK  182  A    between atoms: _449  and  _452
REMARK  183  A    between atoms: _452  and  _453
REMARK  184  A    between atoms: _458  and  _459
REMARK  185  A    between atoms: _461  and  _463
REMARK  186  A    between atoms: _463  and  _464
REMARK  187  A    between atoms: _463  and  _466
REMARK  188  A    between atoms: _466  and  _467
REMARK  189  A    between atoms: _470  and  _472
REMARK  190  A    between atoms: _472  and  _473
REMARK  191  A    between atoms: _472  and  _475
REMARK  192  A    between atoms: _475  and  _476
REMARK  193  A    between atoms: _481  and  _482
REMARK  194  A    between atoms: _484  and  _486
REMARK  195  A    between atoms: _486  and  _487
REMARK  196  A    between atoms: _486  and  _489
REMARK  197  A    between atoms: _489  and  _490
REMARK  198  A    between atoms: _493  and  _494
REMARK  199  A    between atoms: _499  and  _501
REMARK  200  A    between atoms: _501  and  _502
REMARK  201  A    between atoms: _501  and  _504
REMARK  202  A    between atoms: _504  and  _505
REMARK  203  A    between atoms: _511  and  _513
REMARK  204  A    between atoms: _513  and  _514
REMARK  205  A    between atoms: _513  and  _516
REMARK  206  A    between atoms: _516  and  _517
REMARK  207  A    between atoms: _523  and  _525
REMARK  208  A    between atoms: _525  and  _526
REMARK  209  A    between atoms: _525  and  _528
REMARK  210  A    between atoms: _528  and  _529
REMARK  211  A    between atoms: _531  and  _533
REMARK  212  A    between atoms: _533  and  _534
REMARK  213  A    between atoms: _533  and  _536
REMARK  214  A    between atoms: _536  and  _537
REMARK  215  A    between atoms: _540  and  _542
REMARK  216  A    between atoms: _542  and  _543
REMARK  217  A    between atoms: _542  and  _545
REMARK  218  A    between atoms: _545  and  _546
REMARK  219  A    between atoms: _556  and  _558
REMARK  220  A    between atoms: _558  and  _559
REMARK  221  A    between atoms: _561  and  _563
REMARK  222  A    between atoms: _563  and  _564
REMARK  223  A    between atoms: _563  and  _566
REMARK  224  A    between atoms: _566  and  _567
REMARK  225  A    between atoms: _577  and  _579
REMARK  226  A    between atoms: _579  and  _580
REMARK  227  A    between atoms: _579  and  _582
REMARK  228  A    between atoms: _582  and  _583
REMARK  229  A    between atoms: _585  and  _587
REMARK  230  A    between atoms: _587  and  _588
REMARK  231  A    between atoms: _587  and  _590
REMARK  232  A    between atoms: _590  and  _591
REMARK  233  A    between atoms: _591  and  _592
REMARK  234  A    between atoms: _597  and  _599
REMARK  235  A    between atoms: _599  and  _600
REMARK  236  A    between atoms: _599  and  _602
REMARK  237  A    between atoms: _602  and  _603
REMARK  238  A    between atoms: _605  and  _607
REMARK  239  A    between atoms: _607  and  _608
REMARK  240  A    between atoms: _607  and  _610
REMARK  241  A    between atoms: _610  and  _611
REMARK  242  A    between atoms: _614  and  _616
REMARK  243  A    between atoms: _616  and  _617
REMARK  244  A    between atoms: _616  and  _619
REMARK  245  A    between atoms: _619  and  _620
REMARK  246  A    between atoms: _620  and  _621
REMARK  247  A    between atoms: _624  and  _626
REMARK  248  A    between atoms: _626  and  _627
REMARK  249  A    between atoms: _626  and  _629
REMARK  250  A    between atoms: _629  and  _630
REMARK  251  A    between atoms: _636  and  _638
REMARK  252  A    between atoms: _638  and  _639
REMARK  253  A    between atoms: _641  and  _643
REMARK  254  A    between atoms: _643  and  _644
REMARK  255  A    between atoms: _643  and  _646
REMARK  256  A    between atoms: _646  and  _647
REMARK  257  A    between atoms: _652  and  _653
REMARK  258  A    between atoms: _655  and  _657
REMARK  259  A    between atoms: _657  and  _658
REMARK  260  A    between atoms: _657  and  _660
REMARK  261  A    between atoms: _660  and  _661
REMARK  262  A    between atoms: _666  and  _667
REMARK  263  A    between atoms: _669  and  _671
REMARK  264  A    between atoms: _671  and  _672
REMARK  265  A    between atoms: _671  and  _674
REMARK  266  A    between atoms: _674  and  _675
REMARK  267  A    between atoms: _675  and  _676
REMARK  268  A    between atoms: _676  and  _677
REMARK                            x       y       z     vdW  Elec       q    Type
REMARK                         _______ _______ _______ _____ _____    ______ ____
ROOT
ATOM      1  O   HOH     1      -3.198  11.155  -8.263  0.00  0.00    +0.000 OA
ENDROOT
TORSDOF 0
REMARK  Name = ../refined-set-2016/3zm9/3zm9_pocket.pdb
REMARK  268 active torsions:
REMARK  status: ('A' for Active; 'I' for Inactive)
REMARK    1  A    between atoms: _1  and  _3
REMARK    2  A    between atoms: _3  and  _4
REMARK    3  A    between atoms: _3  and  _6
REMARK    4  A    between atoms: _6  and  _7
REMARK    5  A    between atoms: _10  and  _12
REMARK    6  A    between atoms: _12  and  _13
REMARK    7  A    between atoms: _12  and  _15
REMARK    8  A    between atoms: _15  and  _16
REMARK    9  A    between atoms: _16  and  _17
REMARK   10  A    between atoms: _17  and  _18
REMARK   11  A    between atoms: _27  and  _29
REMARK   12  A    between atoms: _29  and  _30
REMARK   13  A    between atoms: _29  and  _32
REMARK   14  A    between atoms: _32  and  _33
REMARK   15  A    between atoms: _38  and  _40
REMARK   16  A    between atoms: _40  and  _41
REMARK   17  A    between atoms: _40  and  _43
REMARK   18  A    between atoms: _43  and  _44
REMARK   19  A    between atoms: _47  and  _49
REMARK   20  A    between atoms: _49  and  _50
REMARK   21  A    between atoms: _49  and  _52
REMARK   22  A    between atoms: _52  and  _53
REMARK   23  A    between atoms: _53  and  _54
REMARK   24  A    between atoms: _59  and  _61
REMARK   25  A    between atoms: _61  and  _62
REMARK   26  A    between atoms: _61  and  _64
REMARK   27  A    between atoms: _67  and  _69
REMARK   28  A    between atoms: _69  and  _70
REMARK   29  A    between atoms: _69  and  _72
REMARK   30  A    between atoms: _72  and  _73
REMARK   31  A    between atoms: _76  and  _78
REMARK   32  A    between atoms: _78  and  _79
REMARK   33  A    between atoms: _78  and  _81
REMARK   34  A    between atoms: _81  and  _82
REMARK   35  A    between atoms: _85  and  _87
REMARK   36  A    between atoms: _87  and  _88
REMARK   37  A    between atoms: _87  and  _90
REMARK   38  A    between atoms: _90  and  _91
REMARK   39  A    between atoms: _91  and  _92
REMARK   40  A    between atoms: _92  and  _93
REMARK   41  A    between atoms: _102  and  _104
REMARK   42  A    between atoms: _104  and  _105
REMARK   43  A    between atoms: _104  and  _107
REMARK   44  A    between atoms: _107  and  _108
REMARK   45  A    between atoms: _114  and  _116
REMARK   46  A    between atoms: _116  and  _117
REMARK   47  A    between atoms: _120  and  _121
REMARK   48  A    between atoms: _126  and  _128
REMARK   49  A    between atoms: _128  and  _129
REMARK   50  A    between atoms: _128  and  _131
REMARK   51  A    between atoms: _131  and  _132
REMARK   52  A    between atoms: _132  and  _133
REMARK   53  A    between atoms: _133  and  _134
REMARK   54  A    between atoms: _134  and  _135
REMARK   55  A    between atoms: _139  and  _141
REMARK   56  A    between atoms: _141  and  _142
REMARK   57  A    between atoms: _141  and  _144
REMARK   58  A    between atoms: _144  and  _145
REMARK   59  A    between atoms: _145  and  _146
REMARK   60  A    between atoms: _146  and  _147
REMARK   61  A    between atoms: _156  and  _158
REMARK   62  A    between atoms: _158  and  _159
REMARK   63  A    between atoms: _158  and  _161
REMARK   64  A    between atoms: _161  and  _162
REMARK   65  A    between atoms: _165  and  _167
REMARK   66  A    between atoms: _167  and  _168
REMARK   67  A    between atoms: _167  and  _170
REMARK   68  A    between atoms: _170  and  _171
REMARK   69  A    between atoms: _171  and  _172
REMARK   70  A    between atoms: _175  and  _177
REMARK   71  A    between atoms: _177  and  _178
REMARK   72  A    between atoms: _177  and  _180
REMARK   73  A    between atoms: _180  and  _181
REMARK   74  A    between atoms: _181  and  _182
REMARK   75  A    between atoms: _187  and  _189
REMARK   76  A    between atoms: _189  and  _190
REMARK   77  A    between atoms: _189  and  _192
REMARK   78  A    between atoms: _192  and  _193
REMARK   79  A    between atoms: _199  and  _201
REMARK   80  A    between atoms: _201  and  _202
REMARK   81  A    between atoms: _201  and  _204
REMARK   82  A    between atoms: _204  and  _205
REMARK   83  A    between atoms: _209  and  _210
REMARK   84  A    between atoms: _215  and  _217
REMARK   85  A    between atoms: _217  and  _218
REMARK   86  A    between atoms: _217  and  _220
REMARK   87  A    between atoms: _220  and  _221
REMARK   88  A    between atoms: _223  and  _225
REMARK   89  A    between atoms: _225  and  _226
REMARK   90  A    between atoms: _225  and  _228
REMARK   91  A    between atoms: _228  and  _229
REMARK   92  A    between atoms: _229  and  _230
REMARK   93  A    between atoms: _230  and  _231
REMARK   94  A    between atoms: _240  and  _242
REMARK   95  A    between atoms: _242  and  _243
REMARK   96  A    between atoms: _242  and  _245
REMARK   97  A    between atoms: _245  and  _246
REMARK   98  A    between atoms: _246  and  _247
REMARK   99  A    between atoms: _247  and  _248
REMARK  100  A    between atoms: _257  and  _259
REMARK  101  A    between atoms: _259  and  _260
REMARK  102  A    between atoms: _259  and  _262
REMARK  103  A    between atoms: _262  and  _263
REMARK  104  A    between atoms: _266  and  _268
REMARK  105  A    between atoms: _268  and  _269
REMARK  106  A    between atoms: _268  and  _271
REMARK  107  A    between atoms: _271  and  _272
REMARK  108  A    between atoms: _277  and  _278
REMARK  109  A    between atoms: _280  and  _282
REMARK  110  A    between atoms: _282  and  _283
REMARK  111  A    between atoms: _282  and  _285
REMARK  112  A    between atoms: _285  and  _286
REMARK  113  A    between atoms: _291  and  _293
REMARK  114  A    between atoms: _293  and  _294
REMARK  115  A    between atoms: _293  and  _296
REMARK  116  A    between atoms: _296  and  _297
REMARK  117  A    between atoms: _300  and  _302
REMARK  118  A    between atoms: _302  and  _303
REMARK  119  A    between atoms: _302  and  _305
REMARK  120  A    between atoms: _307  and  _309
REMARK  121  A    between atoms: _309  and  _310
REMARK  122  A    between atoms: _309  and  _312
REMARK  123  A    between atoms: _312  and  _313
REMARK  124  A    between atoms: _313  and  _314
REMARK  125  A    between atoms: _319  and  _321
REMARK  126  A    between atoms: _321  and  _322
REMARK  127  A    between atoms: _321  and  _324
REMARK  128  A    between atoms: _324  and  _325
REMARK  129  A    between atoms: _325  and  _326
REMARK  130  A    between atoms: _329  and  _331
REMARK  131  A    between atoms: _331  and  _332
REMARK  132  A    between atoms: _334  and  _336
REMARK  133  A    between atoms: _336  and  _337
REMARK  134  A    between atoms: _336  and  _339
REMARK  135  A    between atoms: _339  and  _340
REMARK  136  A    between atoms: _345  and  _347
REMARK  137  A    between atoms: _347  and  _348
REMARK  138  A    between atoms: _347  and  _350
REMARK  139  A    between atoms: _350  and  _351
REMARK  140  A    between atoms: _354  and  _356
REMARK  141  A    between atoms: _356  and  _357
REMARK  142  A    between atoms: _356  and  _359
REMARK  143  A    between atoms: _359  and  _360
REMARK  144  A    between atoms: _363  and  _365
REMARK  145  A    between atoms: _365  and  _366
REMARK  146  A    between atoms: _365  and  _368
REMARK  147  A    between atoms: _368  and  _369
REMARK  148  A    between atoms: _369  and  _370
REMARK  149  A    between atoms: _372  and  _374
REMARK  150  A    between atoms: _374  and  _375
REMARK  151  A    between atoms: _374  and  _377
REMARK  152  A    between atoms: _377  and  _378
REMARK  153  A    between atoms: _381  and  _383
REMARK  154  A    between atoms: _383  and  _384
REMARK  155  A    between atoms: _383  and  _386
REMARK  156  A    between atoms: _386  and  _387
REMARK  157  A    between atoms: _390  and  _392
REMARK  158  A    between atoms: _392  and  _393
REMARK  159  A    between atoms: _392  and  _395
REMARK  160  A    between atoms: _395  and  _396
REMARK  161  A    between atoms: _396  and  _397
REMARK  162  A    between atoms: _400  and  _402
REMARK  163  A    between atoms: _402  and  _403
REMARK  164  A    between atoms: _402  and  _405
REMARK  165  A    between atoms: _405  and  _406
REMARK  166  A    between atoms: _411  and  _412
REMARK  167  A    between atoms: _414  and  _416
REMARK  168  A    between atoms: _416  and  _417
REMARK  169  A    between atoms: _416  and  _419
REMARK  170  A    between atoms: _419  and  _420
REMARK  171  A    between atoms: _426  and  _428
REMARK  172  A    between atoms: _428  and  _429
REMARK  173  A    between atoms: _428  and  _431
REMARK  174  A    between atoms: _431  and  _432
REMARK  175  A    between atoms: _437  and  _439
REMARK  176  A    between atoms: _439  and  _440
REMARK  177  A    between atoms: _439  and  _442
REMARK  178  A    between atoms: _442  and  _443
REMARK  179  A    between atoms: _443  and  _444
REMARK  180  A    between atoms: _447  and  _449
REMARK  181  A    between atoms: _449  and  _450
REMARK  182  A    between atoms: _449  and  _452
REMARK  183  A    between atoms: _452  and  _453
REMARK  184  A    between atoms: _458  and  _459
REMARK  185  A    between atoms: _461  and  _463
REMARK  186  A    between atoms: _463  and  _464
REMARK  187  A    between atoms: _463  and  _466
REMARK  188  A    between atoms: _466  and  _467
REMARK  189  A    between atoms: _470  and  _472
REMARK  190  A    between atoms: _472  and  _473
REMARK  191  A    between atoms: _472  and  _475
REMARK  192  A    between atoms: _475  and  _476
REMARK  193  A    between atoms: _481  and  _482
REMARK  194  A    between atoms: _484  and  _486
REMARK  195  A    between atoms: _486  and  _487
REMARK  196  A    between atoms: _486  and  _489
REMARK  197  A    between atoms: _489  and  _490
REMARK  198  A    between atoms: _493  and  _494
REMARK  199  A    between atoms: _499  and  _501
REMARK  200  A    between atoms: _501  and  _502
REMARK  201  A    between atoms: _501  and  _504
REMARK  202  A    between atoms: _504  and  _505
REMARK  203  A    between atoms: _511  and  _513
REMARK  204  A    between atoms: _513  and  _514
REMARK  205  A    between atoms: _513  and  _516
REMARK  206  A    between atoms: _516  and  _517
REMARK  207  A    between atoms: _523  and  _525
REMARK  208  A    between atoms: _525  and  _526
REMARK  209  A    between atoms: _525  and  _528
REMARK  210  A    between atoms: _528  and  _529
REMARK  211  A    between atoms: _531  and  _533
REMARK  212  A    between atoms: _533  and  _534
REMARK  213  A    between atoms: _533  and  _536
REMARK  214  A    between atoms: _536  and  _537
REMARK  215  A    between atoms: _540  and  _542
REMARK  216  A    between atoms: _542  and  _543
REMARK  217  A    between atoms: _542  and  _545
REMARK  218  A    between atoms: _545  and  _546
REMARK  219  A    between atoms: _556  and  _558
REMARK  220  A    between atoms: _558  and  _559
REMARK  221  A    between atoms: _561  and  _563
REMARK  222  A    between atoms: _563  and  _564
REMARK  223  A    between atoms: _563  and  _566
REMARK  224  A    between atoms: _566  and  _567
REMARK  225  A    between atoms: _577  and  _579
REMARK  226  A    between atoms: _579  and  _580
REMARK  227  A    between atoms: _579  and  _582
REMARK  228  A    between atoms: _582  and  _583
REMARK  229  A    between atoms: _585  and  _587
REMARK  230  A    between atoms: _587  and  _588
REMARK  231  A    between atoms: _587  and  _590
REMARK  232  A    between atoms: _590  and  _591
REMARK  233  A    between atoms: _591  and  _592
REMARK  234  A    between atoms: _597  and  _599
REMARK  235  A    between atoms: _599  and  _600
REMARK  236  A    between atoms: _599  and  _602
REMARK  237  A    between atoms: _602  and  _603
REMARK  238  A    between atoms: _605  and  _607
REMARK  239  A    between atoms: _607  and  _608
REMARK  240  A    between atoms: _607  and  _610
REMARK  241  A    between atoms: _610  and  _611
REMARK  242  A    between atoms: _614  and  _616
REMARK  243  A    between atoms: _616  and  _617
REMARK  244  A    between atoms: _616  and  _619
REMARK  245  A    between atoms: _619  and  _620
REMARK  246  A    between atoms: _620  and  _621
REMARK  247  A    between atoms: _624  and  _626
REMARK  248  A    between atoms: _626  and  _627
REMARK  249  A    between atoms: _626  and  _629
REMARK  250  A    between atoms: _629  and  _630
REMARK  251  A    between atoms: _636  and  _638
REMARK  252  A    between atoms: _638  and  _639
REMARK  253  A    between atoms: _641  and  _643
REMARK  254  A    between atoms: _643  and  _644
REMARK  255  A    between atoms: _643  and  _646
REMARK  256  A    between atoms: _646  and  _647
REMARK  257  A    between atoms: _652  and  _653
REMARK  258  A    between atoms: _655  and  _657
REMARK  259  A    between atoms: _657  and  _658
REMARK  260  A    between atoms: _657  and  _660
REMARK  261  A    between atoms: _660  and  _661
REMARK  262  A    between atoms: _666  and  _667
REMARK  263  A    between atoms: _669  and  _671
REMARK  264  A    between atoms: _671  and  _672
REMARK  265  A    between atoms: _671  and  _674
REMARK  266  A    between atoms: _674  and  _675
REMARK  267  A    between atoms: _675  and  _676
REMARK  268  A    between atoms: _676  and  _677
REMARK                            x       y       z     vdW  Elec       q    Type
REMARK                         _______ _______ _______ _____ _____    ______ ____
ROOT
ATOM      1  O   HOH     1     -11.263  12.287   1.149  0.00  0.00    +0.000 OA
ENDROOT
TORSDOF 0
REMARK  Name = ../refined-set-2016/3zm9/3zm9_pocket.pdb
REMARK  268 active torsions:
REMARK  status: ('A' for Active; 'I' for Inactive)
REMARK    1  A    between atoms: _1  and  _3
REMARK    2  A    between atoms: _3  and  _4
REMARK    3  A    between atoms: _3  and  _6
REMARK    4  A    between atoms: _6  and  _7
REMARK    5  A    between atoms: _10  and  _12
REMARK    6  A    between atoms: _12  and  _13
REMARK    7  A    between atoms: _12  and  _15
REMARK    8  A    between atoms: _15  and  _16
REMARK    9  A    between atoms: _16  and  _17
REMARK   10  A    between atoms: _17  and  _18
REMARK   11  A    between atoms: _27  and  _29
REMARK   12  A    between atoms: _29  and  _30
REMARK   13  A    between atoms: _29  and  _32
REMARK   14  A    between atoms: _32  and  _33
REMARK   15  A    between atoms: _38  and  _40
REMARK   16  A    between atoms: _40  and  _41
REMARK   17  A    between atoms: _40  and  _43
REMARK   18  A    between atoms: _43  and  _44
REMARK   19  A    between atoms: _47  and  _49
REMARK   20  A    between atoms: _49  and  _50
REMARK   21  A    between atoms: _49  and  _52
REMARK   22  A    between atoms: _52  and  _53
REMARK   23  A    between atoms: _53  and  _54
REMARK   24  A    between atoms: _59  and  _61
REMARK   25  A    between atoms: _61  and  _62
REMARK   26  A    between atoms: _61  and  _64
REMARK   27  A    between atoms: _67  and  _69
REMARK   28  A    between atoms: _69  and  _70
REMARK   29  A    between atoms: _69  and  _72
REMARK   30  A    between atoms: _72  and  _73
REMARK   31  A    between atoms: _76  and  _78
REMARK   32  A    between atoms: _78  and  _79
REMARK   33  A    between atoms: _78  and  _81
REMARK   34  A    between atoms: _81  and  _82
REMARK   35  A    between atoms: _85  and  _87
REMARK   36  A    between atoms: _87  and  _88
REMARK   37  A    between atoms: _87  and  _90
REMARK   38  A    between atoms: _90  and  _91
REMARK   39  A    between atoms: _91  and  _92
REMARK   40  A    between atoms: _92  and  _93
REMARK   41  A    between atoms: _102  and  _104
REMARK   42  A    between atoms: _104  and  _105
REMARK   43  A    between atoms: _104  and  _107
REMARK   44  A    between atoms: _107  and  _108
REMARK   45  A    between atoms: _114  and  _116
REMARK   46  A    between atoms: _116  and  _117
REMARK   47  A    between atoms: _120  and  _121
REMARK   48  A    between atoms: _126  and  _128
REMARK   49  A    between atoms: _128  and  _129
REMARK   50  A    between atoms: _128  and  _131
REMARK   51  A    between atoms: _131  and  _132
REMARK   52  A    between atoms: _132  and  _133
REMARK   53  A    between atoms: _133  and  _134
REMARK   54  A    between atoms: _134  and  _135
REMARK   55  A    between atoms: _139  and  _141
REMARK   56  A    between atoms: _141  and  _142
REMARK   57  A    between atoms: _141  and  _144
REMARK   58  A    between atoms: _144  and  _145
REMARK   59  A    between atoms: _145  and  _146
REMARK   60  A    between atoms: _146  and  _147
REMARK   61  A    between atoms: _156  and  _158
REMARK   62  A    between atoms: _158  and  _159
REMARK   63  A    between atoms: _158  and  _161
REMARK   64  A    between atoms: _161  and  _162
REMARK   65  A    between atoms: _165  and  _167
REMARK   66  A    between atoms: _167  and  _168
REMARK   67  A    between atoms: _167  and  _170
REMARK   68  A    between atoms: _170  and  _171
REMARK   69  A    between atoms: _171  and  _172
REMARK   70  A    between atoms: _175  and  _177
REMARK   71  A    between atoms: _177  and  _178
REMARK   72  A    between atoms: _177  and  _180
REMARK   73  A    between atoms: _180  and  _181
REMARK   74  A    between atoms: _181  and  _182
REMARK   75  A    between atoms: _187  and  _189
REMARK   76  A    between atoms: _189  and  _190
REMARK   77  A    between atoms: _189  and  _192
REMARK   78  A    between atoms: _192  and  _193
REMARK   79  A    between atoms: _199  and  _201
REMARK   80  A    between atoms: _201  and  _202
REMARK   81  A    between atoms: _201  and  _204
REMARK   82  A    between atoms: _204  and  _205
REMARK   83  A    between atoms: _209  and  _210
REMARK   84  A    between atoms: _215  and  _217
REMARK   85  A    between atoms: _217  and  _218
REMARK   86  A    between atoms: _217  and  _220
REMARK   87  A    between atoms: _220  and  _221
REMARK   88  A    between atoms: _223  and  _225
REMARK   89  A    between atoms: _225  and  _226
REMARK   90  A    between atoms: _225  and  _228
REMARK   91  A    between atoms: _228  and  _229
REMARK   92  A    between atoms: _229  and  _230
REMARK   93  A    between atoms: _230  and  _231
REMARK   94  A    between atoms: _240  and  _242
REMARK   95  A    between atoms: _242  and  _243
REMARK   96  A    between atoms: _242  and  _245
REMARK   97  A    between atoms: _245  and  _246
REMARK   98  A    between atoms: _246  and  _247
REMARK   99  A    between atoms: _247  and  _248
REMARK  100  A    between atoms: _257  and  _259
REMARK  101  A    between atoms: _259  and  _260
REMARK  102  A    between atoms: _259  and  _262
REMARK  103  A    between atoms: _262  and  _263
REMARK  104  A    between atoms: _266  and  _268
REMARK  105  A    between atoms: _268  and  _269
REMARK  106  A    between atoms: _268  and  _271
REMARK  107  A    between atoms: _271  and  _272
REMARK  108  A    between atoms: _277  and  _278
REMARK  109  A    between atoms: _280  and  _282
REMARK  110  A    between atoms: _282  and  _283
REMARK  111  A    between atoms: _282  and  _285
REMARK  112  A    between atoms: _285  and  _286
REMARK  113  A    between atoms: _291  and  _293
REMARK  114  A    between atoms: _293  and  _294
REMARK  115  A    between atoms: _293  and  _296
REMARK  116  A    between atoms: _296  and  _297
REMARK  117  A    between atoms: _300  and  _302
REMARK  118  A    between atoms: _302  and  _303
REMARK  119  A    between atoms: _302  and  _305
REMARK  120  A    between atoms: _307  and  _309
REMARK  121  A    between atoms: _309  and  _310
REMARK  122  A    between atoms: _309  and  _312
REMARK  123  A    between atoms: _312  and  _313
REMARK  124  A    between atoms: _313  and  _314
REMARK  125  A    between atoms: _319  and  _321
REMARK  126  A    between atoms: _321  and  _322
REMARK  127  A    between atoms: _321  and  _324
REMARK  128  A    between atoms: _324  and  _325
REMARK  129  A    between atoms: _325  and  _326
REMARK  130  A    between atoms: _329  and  _331
REMARK  131  A    between atoms: _331  and  _332
REMARK  132  A    between atoms: _334  and  _336
REMARK  133  A    between atoms: _336  and  _337
REMARK  134  A    between atoms: _336  and  _339
REMARK  135  A    between atoms: _339  and  _340
REMARK  136  A    between atoms: _345  and  _347
REMARK  137  A    between atoms: _347  and  _348
REMARK  138  A    between atoms: _347  and  _350
REMARK  139  A    between atoms: _350  and  _351
REMARK  140  A    between atoms: _354  and  _356
REMARK  141  A    between atoms: _356  and  _357
REMARK  142  A    between atoms: _356  and  _359
REMARK  143  A    between atoms: _359  and  _360
REMARK  144  A    between atoms: _363  and  _365
REMARK  145  A    between atoms: _365  and  _366
REMARK  146  A    between atoms: _365  and  _368
REMARK  147  A    between atoms: _368  and  _369
REMARK  148  A    between atoms: _369  and  _370
REMARK  149  A    between atoms: _372  and  _374
REMARK  150  A    between atoms: _374  and  _375
REMARK  151  A    between atoms: _374  and  _377
REMARK  152  A    between atoms: _377  and  _378
REMARK  153  A    between atoms: _381  and  _383
REMARK  154  A    between atoms: _383  and  _384
REMARK  155  A    between atoms: _383  and  _386
REMARK  156  A    between atoms: _386  and  _387
REMARK  157  A    between atoms: _390  and  _392
REMARK  158  A    between atoms: _392  and  _393
REMARK  159  A    between atoms: _392  and  _395
REMARK  160  A    between atoms: _395  and  _396
REMARK  161  A    between atoms: _396  and  _397
REMARK  162  A    between atoms: _400  and  _402
REMARK  163  A    between atoms: _402  and  _403
REMARK  164  A    between atoms: _402  and  _405
REMARK  165  A    between atoms: _405  and  _406
REMARK  166  A    between atoms: _411  and  _412
REMARK  167  A    between atoms: _414  and  _416
REMARK  168  A    between atoms: _416  and  _417
REMARK  169  A    between atoms: _416  and  _419
REMARK  170  A    between atoms: _419  and  _420
REMARK  171  A    between atoms: _426  and  _428
REMARK  172  A    between atoms: _428  and  _429
REMARK  173  A    between atoms: _428  and  _431
REMARK  174  A    between atoms: _431  and  _432
REMARK  175  A    between atoms: _437  and  _439
REMARK  176  A    between atoms: _439  and  _440
REMARK  177  A    between atoms: _439  and  _442
REMARK  178  A    between atoms: _442  and  _443
REMARK  179  A    between atoms: _443  and  _444
REMARK  180  A    between atoms: _447  and  _449
REMARK  181  A    between atoms: _449  and  _450
REMARK  182  A    between atoms: _449  and  _452
REMARK  183  A    between atoms: _452  and  _453
REMARK  184  A    between atoms: _458  and  _459
REMARK  185  A    between atoms: _461  and  _463
REMARK  186  A    between atoms: _463  and  _464
REMARK  187  A    between atoms: _463  and  _466
REMARK  188  A    between atoms: _466  and  _467
REMARK  189  A    between atoms: _470  and  _472
REMARK  190  A    between atoms: _472  and  _473
REMARK  191  A    between atoms: _472  and  _475
REMARK  192  A    between atoms: _475  and  _476
REMARK  193  A    between atoms: _481  and  _482
REMARK  194  A    between atoms: _484  and  _486
REMARK  195  A    between atoms: _486  and  _487
REMARK  196  A    between atoms: _486  and  _489
REMARK  197  A    between atoms: _489  and  _490
REMARK  198  A    between atoms: _493  and  _494
REMARK  199  A    between atoms: _499  and  _501
REMARK  200  A    between atoms: _501  and  _502
REMARK  201  A    between atoms: _501  and  _504
REMARK  202  A    between atoms: _504  and  _505
REMARK  203  A    between atoms: _511  and  _513
REMARK  204  A    between atoms: _513  and  _514
REMARK  205  A    between atoms: _513  and  _516
REMARK  206  A    between atoms: _516  and  _517
REMARK  207  A    between atoms: _523  and  _525
REMARK  208  A    between atoms: _525  and  _526
REMARK  209  A    between atoms: _525  and  _528
REMARK  210  A    between atoms: _528  and  _529
REMARK  211  A    between atoms: _531  and  _533
REMARK  212  A    between atoms: _533  and  _534
REMARK  213  A    between atoms: _533  and  _536
REMARK  214  A    between atoms: _536  and  _537
REMARK  215  A    between atoms: _540  and  _542
REMARK  216  A    between atoms: _542  and  _543
REMARK  217  A    between atoms: _542  and  _545
REMARK  218  A    between atoms: _545  and  _546
REMARK  219  A    between atoms: _556  and  _558
REMARK  220  A    between atoms: _558  and  _559
REMARK  221  A    between atoms: _561  and  _563
REMARK  222  A    between atoms: _563  and  _564
REMARK  223  A    between atoms: _563  and  _566
REMARK  224  A    between atoms: _566  and  _567
REMARK  225  A    between atoms: _577  and  _579
REMARK  226  A    between atoms: _579  and  _580
REMARK  227  A    between atoms: _579  and  _582
REMARK  228  A    between atoms: _582  and  _583
REMARK  229  A    between atoms: _585  and  _587
REMARK  230  A    between atoms: _587  and  _588
REMARK  231  A    between atoms: _587  and  _590
REMARK  232  A    between atoms: _590  and  _591
REMARK  233  A    between atoms: _591  and  _592
REMARK  234  A    between atoms: _597  and  _599
REMARK  235  A    between atoms: _599  and  _600
REMARK  236  A    between atoms: _599  and  _602
REMARK  237  A    between atoms: _602  and  _603
REMARK  238  A    between atoms: _605  and  _607
REMARK  239  A    between atoms: _607  and  _608
REMARK  240  A    between atoms: _607  and  _610
REMARK  241  A    between atoms: _610  and  _611
REMARK  242  A    between atoms: _614  and  _616
REMARK  243  A    between atoms: _616  and  _617
REMARK  244  A    between atoms: _616  and  _619
REMARK  245  A    between atoms: _619  and  _620
REMARK  246  A    between atoms: _620  and  _621
REMARK  247  A    between atoms: _624  and  _626
REMARK  248  A    between atoms: _626  and  _627
REMARK  249  A    between atoms: _626  and  _629
REMARK  250  A    between atoms: _629  and  _630
REMARK  251  A    between atoms: _636  and  _638
REMARK  252  A    between atoms: _638  and  _639
REMARK  253  A    between atoms: _641  and  _643
REMARK  254  A    between atoms: _643  and  _644
REMARK  255  A    between atoms: _643  and  _646
REMARK  256  A    between atoms: _646  and  _647
REMARK  257  A    between atoms: _652  and  _653
REMARK  258  A    between atoms: _655  and  _657
REMARK  259  A    between atoms: _657  and  _658
REMARK  260  A    between atoms: _657  and  _660
REMARK  261  A    between atoms: _660  and  _661
REMARK  262  A    between atoms: _666  and  _667
REMARK  263  A    between atoms: _669  and  _671
REMARK  264  A    between atoms: _671  and  _672
REMARK  265  A    between atoms: _671  and  _674
REMARK  266  A    between atoms: _674  and  _675
REMARK  267  A    between atoms: _675  and  _676
REMARK  268  A    between atoms: _676  and  _677
REMARK                            x       y       z     vdW  Elec       q    Type
REMARK                         _______ _______ _______ _____ _____    ______ ____
ROOT
ATOM      1  O   HOH     1     -14.486  20.177  -8.948  0.00  0.00    +0.000 OA
ENDROOT
TORSDOF 0
REMARK  Name = ../refined-set-2016/3zm9/3zm9_pocket.pdb
REMARK  268 active torsions:
REMARK  status: ('A' for Active; 'I' for Inactive)
REMARK    1  A    between atoms: _1  and  _3
REMARK    2  A    between atoms: _3  and  _4
REMARK    3  A    between atoms: _3  and  _6
REMARK    4  A    between atoms: _6  and  _7
REMARK    5  A    between atoms: _10  and  _12
REMARK    6  A    between atoms: _12  and  _13
REMARK    7  A    between atoms: _12  and  _15
REMARK    8  A    between atoms: _15  and  _16
REMARK    9  A    between atoms: _16  and  _17
REMARK   10  A    between atoms: _17  and  _18
REMARK   11  A    between atoms: _27  and  _29
REMARK   12  A    between atoms: _29  and  _30
REMARK   13  A    between atoms: _29  and  _32
REMARK   14  A    between atoms: _32  and  _33
REMARK   15  A    between atoms: _38  and  _40
REMARK   16  A    between atoms: _40  and  _41
REMARK   17  A    between atoms: _40  and  _43
REMARK   18  A    between atoms: _43  and  _44
REMARK   19  A    between atoms: _47  and  _49
REMARK   20  A    between atoms: _49  and  _50
REMARK   21  A    between atoms: _49  and  _52
REMARK   22  A    between atoms: _52  and  _53
REMARK   23  A    between atoms: _53  and  _54
REMARK   24  A    between atoms: _59  and  _61
REMARK   25  A    between atoms: _61  and  _62
REMARK   26  A    between atoms: _61  and  _64
REMARK   27  A    between atoms: _67  and  _69
REMARK   28  A    between atoms: _69  and  _70
REMARK   29  A    between atoms: _69  and  _72
REMARK   30  A    between atoms: _72  and  _73
REMARK   31  A    between atoms: _76  and  _78
REMARK   32  A    between atoms: _78  and  _79
REMARK   33  A    between atoms: _78  and  _81
REMARK   34  A    between atoms: _81  and  _82
REMARK   35  A    between atoms: _85  and  _87
REMARK   36  A    between atoms: _87  and  _88
REMARK   37  A    between atoms: _87  and  _90
REMARK   38  A    between atoms: _90  and  _91
REMARK   39  A    between atoms: _91  and  _92
REMARK   40  A    between atoms: _92  and  _93
REMARK   41  A    between atoms: _102  and  _104
REMARK   42  A    between atoms: _104  and  _105
REMARK   43  A    between atoms: _104  and  _107
REMARK   44  A    between atoms: _107  and  _108
REMARK   45  A    between atoms: _114  and  _116
REMARK   46  A    between atoms: _116  and  _117
REMARK   47  A    between atoms: _120  and  _121
REMARK   48  A    between atoms: _126  and  _128
REMARK   49  A    between atoms: _128  and  _129
REMARK   50  A    between atoms: _128  and  _131
REMARK   51  A    between atoms: _131  and  _132
REMARK   52  A    between atoms: _132  and  _133
REMARK   53  A    between atoms: _133  and  _134
REMARK   54  A    between atoms: _134  and  _135
REMARK   55  A    between atoms: _139  and  _141
REMARK   56  A    between atoms: _141  and  _142
REMARK   57  A    between atoms: _141  and  _144
REMARK   58  A    between atoms: _144  and  _145
REMARK   59  A    between atoms: _145  and  _146
REMARK   60  A    between atoms: _146  and  _147
REMARK   61  A    between atoms: _156  and  _158
REMARK   62  A    between atoms: _158  and  _159
REMARK   63  A    between atoms: _158  and  _161
REMARK   64  A    between atoms: _161  and  _162
REMARK   65  A    between atoms: _165  and  _167
REMARK   66  A    between atoms: _167  and  _168
REMARK   67  A    between atoms: _167  and  _170
REMARK   68  A    between atoms: _170  and  _171
REMARK   69  A    between atoms: _171  and  _172
REMARK   70  A    between atoms: _175  and  _177
REMARK   71  A    between atoms: _177  and  _178
REMARK   72  A    between atoms: _177  and  _180
REMARK   73  A    between atoms: _180  and  _181
REMARK   74  A    between atoms: _181  and  _182
REMARK   75  A    between atoms: _187  and  _189
REMARK   76  A    between atoms: _189  and  _190
REMARK   77  A    between atoms: _189  and  _192
REMARK   78  A    between atoms: _192  and  _193
REMARK   79  A    between atoms: _199  and  _201
REMARK   80  A    between atoms: _201  and  _202
REMARK   81  A    between atoms: _201  and  _204
REMARK   82  A    between atoms: _204  and  _205
REMARK   83  A    between atoms: _209  and  _210
REMARK   84  A    between atoms: _215  and  _217
REMARK   85  A    between atoms: _217  and  _218
REMARK   86  A    between atoms: _217  and  _220
REMARK   87  A    between atoms: _220  and  _221
REMARK   88  A    between atoms: _223  and  _225
REMARK   89  A    between atoms: _225  and  _226
REMARK   90  A    between atoms: _225  and  _228
REMARK   91  A    between atoms: _228  and  _229
REMARK   92  A    between atoms: _229  and  _230
REMARK   93  A    between atoms: _230  and  _231
REMARK   94  A    between atoms: _240  and  _242
REMARK   95  A    between atoms: _242  and  _243
REMARK   96  A    between atoms: _242  and  _245
REMARK   97  A    between atoms: _245  and  _246
REMARK   98  A    between atoms: _246  and  _247
REMARK   99  A    between atoms: _247  and  _248
REMARK  100  A    between atoms: _257  and  _259
REMARK  101  A    between atoms: _259  and  _260
REMARK  102  A    between atoms: _259  and  _262
REMARK  103  A    between atoms: _262  and  _263
REMARK  104  A    between atoms: _266  and  _268
REMARK  105  A    between atoms: _268  and  _269
REMARK  106  A    between atoms: _268  and  _271
REMARK  107  A    between atoms: _271  and  _272
REMARK  108  A    between atoms: _277  and  _278
REMARK  109  A    between atoms: _280  and  _282
REMARK  110  A    between atoms: _282  and  _283
REMARK  111  A    between atoms: _282  and  _285
REMARK  112  A    between atoms: _285  and  _286
REMARK  113  A    between atoms: _291  and  _293
REMARK  114  A    between atoms: _293  and  _294
REMARK  115  A    between atoms: _293  and  _296
REMARK  116  A    between atoms: _296  and  _297
REMARK  117  A    between atoms: _300  and  _302
REMARK  118  A    between atoms: _302  and  _303
REMARK  119  A    between atoms: _302  and  _305
REMARK  120  A    between atoms: _307  and  _309
REMARK  121  A    between atoms: _309  and  _310
REMARK  122  A    between atoms: _309  and  _312
REMARK  123  A    between atoms: _312  and  _313
REMARK  124  A    between atoms: _313  and  _314
REMARK  125  A    between atoms: _319  and  _321
REMARK  126  A    between atoms: _321  and  _322
REMARK  127  A    between atoms: _321  and  _324
REMARK  128  A    between atoms: _324  and  _325
REMARK  129  A    between atoms: _325  and  _326
REMARK  130  A    between atoms: _329  and  _331
REMARK  131  A    between atoms: _331  and  _332
REMARK  132  A    between atoms: _334  and  _336
REMARK  133  A    between atoms: _336  and  _337
REMARK  134  A    between atoms: _336  and  _339
REMARK  135  A    between atoms: _339  and  _340
REMARK  136  A    between atoms: _345  and  _347
REMARK  137  A    between atoms: _347  and  _348
REMARK  138  A    between atoms: _347  and  _350
REMARK  139  A    between atoms: _350  and  _351
REMARK  140  A    between atoms: _354  and  _356
REMARK  141  A    between atoms: _356  and  _357
REMARK  142  A    between atoms: _356  and  _359
REMARK  143  A    between atoms: _359  and  _360
REMARK  144  A    between atoms: _363  and  _365
REMARK  145  A    between atoms: _365  and  _366
REMARK  146  A    between atoms: _365  and  _368
REMARK  147  A    between atoms: _368  and  _369
REMARK  148  A    between atoms: _369  and  _370
REMARK  149  A    between atoms: _372  and  _374
REMARK  150  A    between atoms: _374  and  _375
REMARK  151  A    between atoms: _374  and  _377
REMARK  152  A    between atoms: _377  and  _378
REMARK  153  A    between atoms: _381  and  _383
REMARK  154  A    between atoms: _383  and  _384
REMARK  155  A    between atoms: _383  and  _386
REMARK  156  A    between atoms: _386  and  _387
REMARK  157  A    between atoms: _390  and  _392
REMARK  158  A    between atoms: _392  and  _393
REMARK  159  A    between atoms: _392  and  _395
REMARK  160  A    between atoms: _395  and  _396
REMARK  161  A    between atoms: _396  and  _397
REMARK  162  A    between atoms: _400  and  _402
REMARK  163  A    between atoms: _402  and  _403
REMARK  164  A    between atoms: _402  and  _405
REMARK  165  A    between atoms: _405  and  _406
REMARK  166  A    between atoms: _411  and  _412
REMARK  167  A    between atoms: _414  and  _416
REMARK  168  A    between atoms: _416  and  _417
REMARK  169  A    between atoms: _416  and  _419
REMARK  170  A    between atoms: _419  and  _420
REMARK  171  A    between atoms: _426  and  _428
REMARK  172  A    between atoms: _428  and  _429
REMARK  173  A    between atoms: _428  and  _431
REMARK  174  A    between atoms: _431  and  _432
REMARK  175  A    between atoms: _437  and  _439
REMARK  176  A    between atoms: _439  and  _440
REMARK  177  A    between atoms: _439  and  _442
REMARK  178  A    between atoms: _442  and  _443
REMARK  179  A    between atoms: _443  and  _444
REMARK  180  A    between atoms: _447  and  _449
REMARK  181  A    between atoms: _449  and  _450
REMARK  182  A    between atoms: _449  and  _452
REMARK  183  A    between atoms: _452  and  _453
REMARK  184  A    between atoms: _458  and  _459
REMARK  185  A    between atoms: _461  and  _463
REMARK  186  A    between atoms: _463  and  _464
REMARK  187  A    between atoms: _463  and  _466
REMARK  188  A    between atoms: _466  and  _467
REMARK  189  A    between atoms: _470  and  _472
REMARK  190  A    between atoms: _472  and  _473
REMARK  191  A    between atoms: _472  and  _475
REMARK  192  A    between atoms: _475  and  _476
REMARK  193  A    between atoms: _481  and  _482
REMARK  194  A    between atoms: _484  and  _486
REMARK  195  A    between atoms: _486  and  _487
REMARK  196  A    between atoms: _486  and  _489
REMARK  197  A    between atoms: _489  and  _490
REMARK  198  A    between atoms: _493  and  _494
REMARK  199  A    between atoms: _499  and  _501
REMARK  200  A    between atoms: _501  and  _502
REMARK  201  A    between atoms: _501  and  _504
REMARK  202  A    between atoms: _504  and  _505
REMARK  203  A    between atoms: _511  and  _513
REMARK  204  A    between atoms: _513  and  _514
REMARK  205  A    between atoms: _513  and  _516
REMARK  206  A    between atoms: _516  and  _517
REMARK  207  A    between atoms: _523  and  _525
REMARK  208  A    between atoms: _525  and  _526
REMARK  209  A    between atoms: _525  and  _528
REMARK  210  A    between atoms: _528  and  _529
REMARK  211  A    between atoms: _531  and  _533
REMARK  212  A    between atoms: _533  and  _534
REMARK  213  A    between atoms: _533  and  _536
REMARK  214  A    between atoms: _536  and  _537
REMARK  215  A    between atoms: _540  and  _542
REMARK  216  A    between atoms: _542  and  _543
REMARK  217  A    between atoms: _542  and  _545
REMARK  218  A    between atoms: _545  and  _546
REMARK  219  A    between atoms: _556  and  _558
REMARK  220  A    between atoms: _558  and  _559
REMARK  221  A    between atoms: _561  and  _563
REMARK  222  A    between atoms: _563  and  _564
REMARK  223  A    between atoms: _563  and  _566
REMARK  224  A    between atoms: _566  and  _567
REMARK  225  A    between atoms: _577  and  _579
REMARK  226  A    between atoms: _579  and  _580
REMARK  227  A    between atoms: _579  and  _582
REMARK  228  A    between atoms: _582  and  _583
REMARK  229  A    between atoms: _585  and  _587
REMARK  230  A    between atoms: _587  and  _588
REMARK  231  A    between atoms: _587  and  _590
REMARK  232  A    between atoms: _590  and  _591
REMARK  233  A    between atoms: _591  and  _592
REMARK  234  A    between atoms: _597  and  _599
REMARK  235  A    between atoms: _599  and  _600
REMARK  236  A    between atoms: _599  and  _602
REMARK  237  A    between atoms: _602  and  _603
REMARK  238  A    between atoms: _605  and  _607
REMARK  239  A    between atoms: _607  and  _608
REMARK  240  A    between atoms: _607  and  _610
REMARK  241  A    between atoms: _610  and  _611
REMARK  242  A    between atoms: _614  and  _616
REMARK  243  A    between atoms: _616  and  _617
REMARK  244  A    between atoms: _616  and  _619
REMARK  245  A    between atoms: _619  and  _620
REMARK  246  A    between atoms: _620  and  _621
REMARK  247  A    between atoms: _624  and  _626
REMARK  248  A    between atoms: _626  and  _627
REMARK  249  A    between atoms: _626  and  _629
REMARK  250  A    between atoms: _629  and  _630
REMARK  251  A    between atoms: _636  and  _638
REMARK  252  A    between atoms: _638  and  _639
REMARK  253  A    between atoms: _641  and  _643
REMARK  254  A    between atoms: _643  and  _644
REMARK  255  A    between atoms: _643  and  _646
REMARK  256  A    between atoms: _646  and  _647
REMARK  257  A    between atoms: _652  and  _653
REMARK  258  A    between atoms: _655  and  _657
REMARK  259  A    between atoms: _657  and  _658
REMARK  260  A    between atoms: _657  and  _660
REMARK  261  A    between atoms: _660  and  _661
REMARK  262  A    between atoms: _666  and  _667
REMARK  263  A    between atoms: _669  and  _671
REMARK  264  A    between atoms: _671  and  _672
REMARK  265  A    between atoms: _671  and  _674
REMARK  266  A    between atoms: _674  and  _675
REMARK  267  A    between atoms: _675  and  _676
REMARK  268  A    between atoms: _676  and  _677
REMARK                            x       y       z     vdW  Elec       q    Type
REMARK                         _______ _______ _______ _____ _____    ______ ____
ROOT
ATOM      1  O   HOH     1      -5.507  16.125 -10.190  0.00  0.00    +0.000 OA
ENDROOT
TORSDOF 0
