REMARK  Name = ../refined-set-2016/4trc/4trc_pocket.pdb
REMARK  98 active torsions:
REMARK  status: ('A' for Active; 'I' for Inactive)
REMARK    1  A    between atoms: _2  and  _3
REMARK    2  A    between atoms: _8  and  _10
REMARK    3  A    between atoms: _10  and  _11
REMARK    4  A    between atoms: _10  and  _13
REMARK    5  A    between atoms: _13  and  _14
REMARK    6  A    between atoms: _14  and  _15
REMARK    7  A    between atoms: _15  and  _16
REMARK    8  A    between atoms: _16  and  _17
REMARK    9  A    between atoms: _21  and  _23
REMARK   10  A    between atoms: _23  and  _24
REMARK   11  A    between atoms: _23  and  _26
REMARK   12  A    between atoms: _29  and  _31
REMARK   13  A    between atoms: _31  and  _32
REMARK   14  A    between atoms: _34  and  _36
REMARK   15  A    between atoms: _36  and  _37
REMARK   16  A    between atoms: _36  and  _39
REMARK   17  A    between atoms: _39  and  _40
REMARK   18  A    between atoms: _45  and  _47
REMARK   19  A    between atoms: _47  and  _48
REMARK   20  A    between atoms: _47  and  _50
REMARK   21  A    between atoms: _50  and  _51
REMARK   22  A    between atoms: _54  and  _56
REMARK   23  A    between atoms: _56  and  _57
REMARK   24  A    between atoms: _56  and  _59
REMARK   25  A    between atoms: _59  and  _60
REMARK   26  A    between atoms: _63  and  _65
REMARK   27  A    between atoms: _65  and  _66
REMARK   28  A    between atoms: _65  and  _68
REMARK   29  A    between atoms: _68  and  _69
REMARK   30  A    between atoms: _72  and  _74
REMARK   31  A    between atoms: _74  and  _75
REMARK   32  A    between atoms: _74  and  _77
REMARK   33  A    between atoms: _77  and  _78
REMARK   34  A    between atoms: _81  and  _83
REMARK   35  A    between atoms: _83  and  _84
REMARK   36  A    between atoms: _83  and  _86
REMARK   37  A    between atoms: _86  and  _87
REMARK   38  A    between atoms: _90  and  _92
REMARK   39  A    between atoms: _92  and  _93
REMARK   40  A    between atoms: _92  and  _95
REMARK   41  A    between atoms: _95  and  _96
REMARK   42  A    between atoms: _99  and  _101
REMARK   43  A    between atoms: _101  and  _102
REMARK   44  A    between atoms: _104  and  _106
REMARK   45  A    between atoms: _106  and  _107
REMARK   46  A    between atoms: _106  and  _109
REMARK   47  A    between atoms: _109  and  _110
REMARK   48  A    between atoms: _112  and  _114
REMARK   49  A    between atoms: _114  and  _115
REMARK   50  A    between atoms: _114  and  _117
REMARK   51  A    between atoms: _117  and  _118
REMARK   52  A    between atoms: _118  and  _119
REMARK   53  A    between atoms: _124  and  _126
REMARK   54  A    between atoms: _126  and  _127
REMARK   55  A    between atoms: _126  and  _129
REMARK   56  A    between atoms: _129  and  _130
REMARK   57  A    between atoms: _133  and  _135
REMARK   58  A    between atoms: _135  and  _136
REMARK   59  A    between atoms: _139  and  _141
REMARK   60  A    between atoms: _141  and  _142
REMARK   61  A    between atoms: _141  and  _144
REMARK   62  A    between atoms: _144  and  _145
REMARK   63  A    between atoms: _148  and  _150
REMARK   64  A    between atoms: _150  and  _151
REMARK   65  A    between atoms: _150  and  _153
REMARK   66  A    between atoms: _153  and  _154
REMARK   67  A    between atoms: _164  and  _166
REMARK   68  A    between atoms: _166  and  _167
REMARK   69  A    between atoms: _170  and  _172
REMARK   70  A    between atoms: _172  and  _173
REMARK   71  A    between atoms: _172  and  _175
REMARK   72  A    between atoms: _175  and  _176
REMARK   73  A    between atoms: _186  and  _188
REMARK   74  A    between atoms: _188  and  _189
REMARK   75  A    between atoms: _188  and  _191
REMARK   76  A    between atoms: _191  and  _192
REMARK   77  A    between atoms: _198  and  _200
REMARK   78  A    between atoms: _200  and  _201
REMARK   79  A    between atoms: _200  and  _203
REMARK   80  A    between atoms: _203  and  _204
REMARK   81  A    between atoms: _204  and  _205
REMARK   82  A    between atoms: _207  and  _209
REMARK   83  A    between atoms: _209  and  _210
REMARK   84  A    between atoms: _209  and  _212
REMARK   85  A    between atoms: _212  and  _213
REMARK   86  A    between atoms: _218  and  _219
REMARK   87  A    between atoms: _221  and  _223
REMARK   88  A    between atoms: _223  and  _224
REMARK   89  A    between atoms: _223  and  _226
REMARK   90  A    between atoms: _226  and  _227
REMARK   91  A    between atoms: _237  and  _239
REMARK   92  A    between atoms: _239  and  _240
REMARK   93  A    between atoms: _239  and  _242
REMARK   94  A    between atoms: _242  and  _243
REMARK   95  A    between atoms: _248  and  _250
REMARK   96  A    between atoms: _250  and  _251
REMARK   97  A    between atoms: _250  and  _253
REMARK   98  A    between atoms: _253  and  _254
REMARK                            x       y       z     vdW  Elec       q    Type
REMARK                         _______ _______ _______ _____ _____    ______ ____
ROOT
ATOM      1  N   PRO A   1      54.308  38.510 -13.259  0.00  0.00    -0.212 NA
ATOM      2  CA  PRO A   1      53.748  39.845 -13.478  0.00  0.00    +0.137 C 
ATOM      3  CB  PRO A   1      53.326  39.818 -14.960  0.00  0.00    +0.027 C 
ATOM      4  CG  PRO A   1      53.897  38.563 -15.522  0.00  0.00    +0.021 C 
ATOM      5  CD  PRO A   1      54.027  37.608 -14.382  0.00  0.00    +0.089 C 
ENDROOT
BRANCH   2   6
ATOM      6  C   PRO A   1      52.515  40.023 -12.589  0.00  0.00    +0.224 C 
ATOM      7  O   PRO A   1      51.536  39.291 -12.732  0.00  0.00    -0.287 OA
ENDBRANCH   2   6
TORSDOF 1
REMARK  Name = ../refined-set-2016/4trc/4trc_pocket.pdb
REMARK  98 active torsions:
REMARK  status: ('A' for Active; 'I' for Inactive)
REMARK    1  A    between atoms: _2  and  _3
REMARK    2  A    between atoms: _8  and  _10
REMARK    3  A    between atoms: _10  and  _11
REMARK    4  A    between atoms: _10  and  _13
REMARK    5  A    between atoms: _13  and  _14
REMARK    6  A    between atoms: _14  and  _15
REMARK    7  A    between atoms: _15  and  _16
REMARK    8  A    between atoms: _16  and  _17
REMARK    9  A    between atoms: _21  and  _23
REMARK   10  A    between atoms: _23  and  _24
REMARK   11  A    between atoms: _23  and  _26
REMARK   12  A    between atoms: _29  and  _31
REMARK   13  A    between atoms: _31  and  _32
REMARK   14  A    between atoms: _34  and  _36
REMARK   15  A    between atoms: _36  and  _37
REMARK   16  A    between atoms: _36  and  _39
REMARK   17  A    between atoms: _39  and  _40
REMARK   18  A    between atoms: _45  and  _47
REMARK   19  A    between atoms: _47  and  _48
REMARK   20  A    between atoms: _47  and  _50
REMARK   21  A    between atoms: _50  and  _51
REMARK   22  A    between atoms: _54  and  _56
REMARK   23  A    between atoms: _56  and  _57
REMARK   24  A    between atoms: _56  and  _59
REMARK   25  A    between atoms: _59  and  _60
REMARK   26  A    between atoms: _63  and  _65
REMARK   27  A    between atoms: _65  and  _66
REMARK   28  A    between atoms: _65  and  _68
REMARK   29  A    between atoms: _68  and  _69
REMARK   30  A    between atoms: _72  and  _74
REMARK   31  A    between atoms: _74  and  _75
REMARK   32  A    between atoms: _74  and  _77
REMARK   33  A    between atoms: _77  and  _78
REMARK   34  A    between atoms: _81  and  _83
REMARK   35  A    between atoms: _83  and  _84
REMARK   36  A    between atoms: _83  and  _86
REMARK   37  A    between atoms: _86  and  _87
REMARK   38  A    between atoms: _90  and  _92
REMARK   39  A    between atoms: _92  and  _93
REMARK   40  A    between atoms: _92  and  _95
REMARK   41  A    between atoms: _95  and  _96
REMARK   42  A    between atoms: _99  and  _101
REMARK   43  A    between atoms: _101  and  _102
REMARK   44  A    between atoms: _104  and  _106
REMARK   45  A    between atoms: _106  and  _107
REMARK   46  A    between atoms: _106  and  _109
REMARK   47  A    between atoms: _109  and  _110
REMARK   48  A    between atoms: _112  and  _114
REMARK   49  A    between atoms: _114  and  _115
REMARK   50  A    between atoms: _114  and  _117
REMARK   51  A    between atoms: _117  and  _118
REMARK   52  A    between atoms: _118  and  _119
REMARK   53  A    between atoms: _124  and  _126
REMARK   54  A    between atoms: _126  and  _127
REMARK   55  A    between atoms: _126  and  _129
REMARK   56  A    between atoms: _129  and  _130
REMARK   57  A    between atoms: _133  and  _135
REMARK   58  A    between atoms: _135  and  _136
REMARK   59  A    between atoms: _139  and  _141
REMARK   60  A    between atoms: _141  and  _142
REMARK   61  A    between atoms: _141  and  _144
REMARK   62  A    between atoms: _144  and  _145
REMARK   63  A    between atoms: _148  and  _150
REMARK   64  A    between atoms: _150  and  _151
REMARK   65  A    between atoms: _150  and  _153
REMARK   66  A    between atoms: _153  and  _154
REMARK   67  A    between atoms: _164  and  _166
REMARK   68  A    between atoms: _166  and  _167
REMARK   69  A    between atoms: _170  and  _172
REMARK   70  A    between atoms: _172  and  _173
REMARK   71  A    between atoms: _172  and  _175
REMARK   72  A    between atoms: _175  and  _176
REMARK   73  A    between atoms: _186  and  _188
REMARK   74  A    between atoms: _188  and  _189
REMARK   75  A    between atoms: _188  and  _191
REMARK   76  A    between atoms: _191  and  _192
REMARK   77  A    between atoms: _198  and  _200
REMARK   78  A    between atoms: _200  and  _201
REMARK   79  A    between atoms: _200  and  _203
REMARK   80  A    between atoms: _203  and  _204
REMARK   81  A    between atoms: _204  and  _205
REMARK   82  A    between atoms: _207  and  _209
REMARK   83  A    between atoms: _209  and  _210
REMARK   84  A    between atoms: _209  and  _212
REMARK   85  A    between atoms: _212  and  _213
REMARK   86  A    between atoms: _218  and  _219
REMARK   87  A    between atoms: _221  and  _223
REMARK   88  A    between atoms: _223  and  _224
REMARK   89  A    between atoms: _223  and  _226
REMARK   90  A    between atoms: _226  and  _227
REMARK   91  A    between atoms: _237  and  _239
REMARK   92  A    between atoms: _239  and  _240
REMARK   93  A    between atoms: _239  and  _242
REMARK   94  A    between atoms: _242  and  _243
REMARK   95  A    between atoms: _248  and  _250
REMARK   96  A    between atoms: _250  and  _251
REMARK   97  A    between atoms: _250  and  _253
REMARK   98  A    between atoms: _253  and  _254
REMARK                            x       y       z     vdW  Elec       q    Type
REMARK                         _______ _______ _______ _____ _____    ______ ____
ROOT
ATOM      1  CG  LYS A   1      49.278  45.121 -13.396  0.00  0.00    -0.000 C 
ENDROOT
BRANCH   1   2
ATOM      2  CB  LYS A   1      48.378  44.476 -12.332  0.00  0.00    +0.025 C 
BRANCH   2   3
ATOM      3  CA  LYS A   1      49.106  44.170 -11.019  0.00  0.00    +0.133 C 
BRANCH   3   4
ATOM      4  N   LYS A   1      49.677  42.820 -11.025  0.00  0.00    -0.239 NA
ATOM      5  H   LYS A   1      49.048  42.001 -11.147  0.00  0.00    +0.142 HD
ENDBRANCH   3   4
BRANCH   3   6
ATOM      6  C   LYS A   1      48.190  44.425  -9.821  0.00  0.00    +0.224 C 
ATOM      7  O   LYS A   1      47.169  43.760  -9.637  0.00  0.00    -0.287 OA
ENDBRANCH   3   6
ENDBRANCH   2   3
ENDBRANCH   1   2
BRANCH   1   8
ATOM      8  CD  LYS A   1      49.888  44.098 -14.361  0.00  0.00    -0.024 C 
BRANCH   8   9
ATOM      9  CE  LYS A   1      51.168  44.614 -15.010  0.00  0.00    -0.086 C 
BRANCH   9  10
ATOM     10  NZ  LYS A   1      52.300  44.621 -14.029  0.00  0.00    +0.380 N 
ATOM     11  HZ1 LYS A   1      52.059  45.238 -13.227  0.00  0.00    -0.089 HD
ATOM     12  HZ2 LYS A   1      52.465  43.653 -13.685  0.00  0.00    -0.089 HD
ATOM     13  HZ3 LYS A   1      53.159  44.976 -14.495  0.00  0.00    -0.089 HD
ENDBRANCH   9  10
ENDBRANCH   8   9
ENDBRANCH   1   8
TORSDOF 7
REMARK  Name = ../refined-set-2016/4trc/4trc_pocket.pdb
REMARK  98 active torsions:
REMARK  status: ('A' for Active; 'I' for Inactive)
REMARK    1  A    between atoms: _2  and  _3
REMARK    2  A    between atoms: _8  and  _10
REMARK    3  A    between atoms: _10  and  _11
REMARK    4  A    between atoms: _10  and  _13
REMARK    5  A    between atoms: _13  and  _14
REMARK    6  A    between atoms: _14  and  _15
REMARK    7  A    between atoms: _15  and  _16
REMARK    8  A    between atoms: _16  and  _17
REMARK    9  A    between atoms: _21  and  _23
REMARK   10  A    between atoms: _23  and  _24
REMARK   11  A    between atoms: _23  and  _26
REMARK   12  A    between atoms: _29  and  _31
REMARK   13  A    between atoms: _31  and  _32
REMARK   14  A    between atoms: _34  and  _36
REMARK   15  A    between atoms: _36  and  _37
REMARK   16  A    between atoms: _36  and  _39
REMARK   17  A    between atoms: _39  and  _40
REMARK   18  A    between atoms: _45  and  _47
REMARK   19  A    between atoms: _47  and  _48
REMARK   20  A    between atoms: _47  and  _50
REMARK   21  A    between atoms: _50  and  _51
REMARK   22  A    between atoms: _54  and  _56
REMARK   23  A    between atoms: _56  and  _57
REMARK   24  A    between atoms: _56  and  _59
REMARK   25  A    between atoms: _59  and  _60
REMARK   26  A    between atoms: _63  and  _65
REMARK   27  A    between atoms: _65  and  _66
REMARK   28  A    between atoms: _65  and  _68
REMARK   29  A    between atoms: _68  and  _69
REMARK   30  A    between atoms: _72  and  _74
REMARK   31  A    between atoms: _74  and  _75
REMARK   32  A    between atoms: _74  and  _77
REMARK   33  A    between atoms: _77  and  _78
REMARK   34  A    between atoms: _81  and  _83
REMARK   35  A    between atoms: _83  and  _84
REMARK   36  A    between atoms: _83  and  _86
REMARK   37  A    between atoms: _86  and  _87
REMARK   38  A    between atoms: _90  and  _92
REMARK   39  A    between atoms: _92  and  _93
REMARK   40  A    between atoms: _92  and  _95
REMARK   41  A    between atoms: _95  and  _96
REMARK   42  A    between atoms: _99  and  _101
REMARK   43  A    between atoms: _101  and  _102
REMARK   44  A    between atoms: _104  and  _106
REMARK   45  A    between atoms: _106  and  _107
REMARK   46  A    between atoms: _106  and  _109
REMARK   47  A    between atoms: _109  and  _110
REMARK   48  A    between atoms: _112  and  _114
REMARK   49  A    between atoms: _114  and  _115
REMARK   50  A    between atoms: _114  and  _117
REMARK   51  A    between atoms: _117  and  _118
REMARK   52  A    between atoms: _118  and  _119
REMARK   53  A    between atoms: _124  and  _126
REMARK   54  A    between atoms: _126  and  _127
REMARK   55  A    between atoms: _126  and  _129
REMARK   56  A    between atoms: _129  and  _130
REMARK   57  A    between atoms: _133  and  _135
REMARK   58  A    between atoms: _135  and  _136
REMARK   59  A    between atoms: _139  and  _141
REMARK   60  A    between atoms: _141  and  _142
REMARK   61  A    between atoms: _141  and  _144
REMARK   62  A    between atoms: _144  and  _145
REMARK   63  A    between atoms: _148  and  _150
REMARK   64  A    between atoms: _150  and  _151
REMARK   65  A    between atoms: _150  and  _153
REMARK   66  A    between atoms: _153  and  _154
REMARK   67  A    between atoms: _164  and  _166
REMARK   68  A    between atoms: _166  and  _167
REMARK   69  A    between atoms: _170  and  _172
REMARK   70  A    between atoms: _172  and  _173
REMARK   71  A    between atoms: _172  and  _175
REMARK   72  A    between atoms: _175  and  _176
REMARK   73  A    between atoms: _186  and  _188
REMARK   74  A    between atoms: _188  and  _189
REMARK   75  A    between atoms: _188  and  _191
REMARK   76  A    between atoms: _191  and  _192
REMARK   77  A    between atoms: _198  and  _200
REMARK   78  A    between atoms: _200  and  _201
REMARK   79  A    between atoms: _200  and  _203
REMARK   80  A    between atoms: _203  and  _204
REMARK   81  A    between atoms: _204  and  _205
REMARK   82  A    between atoms: _207  and  _209
REMARK   83  A    between atoms: _209  and  _210
REMARK   84  A    between atoms: _209  and  _212
REMARK   85  A    between atoms: _212  and  _213
REMARK   86  A    between atoms: _218  and  _219
REMARK   87  A    between atoms: _221  and  _223
REMARK   88  A    between atoms: _223  and  _224
REMARK   89  A    between atoms: _223  and  _226
REMARK   90  A    between atoms: _226  and  _227
REMARK   91  A    between atoms: _237  and  _239
REMARK   92  A    between atoms: _239  and  _240
REMARK   93  A    between atoms: _239  and  _242
REMARK   94  A    between atoms: _242  and  _243
REMARK   95  A    between atoms: _248  and  _250
REMARK   96  A    between atoms: _250  and  _251
REMARK   97  A    between atoms: _250  and  _253
REMARK   98  A    between atoms: _253  and  _254
REMARK                            x       y       z     vdW  Elec       q    Type
REMARK                         _______ _______ _______ _____ _____    ______ ____
ROOT
ATOM      1  CA  VAL A   1      44.166  47.036  -8.429  0.00  0.00    +0.133 C 
ENDROOT
BRANCH   1   2
ATOM      2  CB  VAL A   1      43.096  46.165  -9.107  0.00  0.00    +0.023 C 
ATOM      3  CG2 VAL A   1      41.897  47.007  -9.523  0.00  0.00    +0.002 C 
ATOM      4  CG1 VAL A   1      43.689  45.445 -10.293  0.00  0.00    +0.002 C 
ENDBRANCH   1   2
BRANCH   1   5
ATOM      5  N   VAL A   1      45.329  46.247  -8.027  0.00  0.00    -0.239 NA
ATOM      6  H   VAL A   1      45.198  45.368  -7.487  0.00  0.00    +0.142 HD
ENDBRANCH   1   5
BRANCH   1   7
ATOM      7  C   VAL A   1      43.562  47.733  -7.214  0.00  0.00    +0.224 C 
ATOM      8  O   VAL A   1      43.331  47.100  -6.180  0.00  0.00    -0.287 OA
ENDBRANCH   1   7
TORSDOF 3
REMARK  Name = ../refined-set-2016/4trc/4trc_pocket.pdb
REMARK  98 active torsions:
REMARK  status: ('A' for Active; 'I' for Inactive)
REMARK    1  A    between atoms: _2  and  _3
REMARK    2  A    between atoms: _8  and  _10
REMARK    3  A    between atoms: _10  and  _11
REMARK    4  A    between atoms: _10  and  _13
REMARK    5  A    between atoms: _13  and  _14
REMARK    6  A    between atoms: _14  and  _15
REMARK    7  A    between atoms: _15  and  _16
REMARK    8  A    between atoms: _16  and  _17
REMARK    9  A    between atoms: _21  and  _23
REMARK   10  A    between atoms: _23  and  _24
REMARK   11  A    between atoms: _23  and  _26
REMARK   12  A    between atoms: _29  and  _31
REMARK   13  A    between atoms: _31  and  _32
REMARK   14  A    between atoms: _34  and  _36
REMARK   15  A    between atoms: _36  and  _37
REMARK   16  A    between atoms: _36  and  _39
REMARK   17  A    between atoms: _39  and  _40
REMARK   18  A    between atoms: _45  and  _47
REMARK   19  A    between atoms: _47  and  _48
REMARK   20  A    between atoms: _47  and  _50
REMARK   21  A    between atoms: _50  and  _51
REMARK   22  A    between atoms: _54  and  _56
REMARK   23  A    between atoms: _56  and  _57
REMARK   24  A    between atoms: _56  and  _59
REMARK   25  A    between atoms: _59  and  _60
REMARK   26  A    between atoms: _63  and  _65
REMARK   27  A    between atoms: _65  and  _66
REMARK   28  A    between atoms: _65  and  _68
REMARK   29  A    between atoms: _68  and  _69
REMARK   30  A    between atoms: _72  and  _74
REMARK   31  A    between atoms: _74  and  _75
REMARK   32  A    between atoms: _74  and  _77
REMARK   33  A    between atoms: _77  and  _78
REMARK   34  A    between atoms: _81  and  _83
REMARK   35  A    between atoms: _83  and  _84
REMARK   36  A    between atoms: _83  and  _86
REMARK   37  A    between atoms: _86  and  _87
REMARK   38  A    between atoms: _90  and  _92
REMARK   39  A    between atoms: _92  and  _93
REMARK   40  A    between atoms: _92  and  _95
REMARK   41  A    between atoms: _95  and  _96
REMARK   42  A    between atoms: _99  and  _101
REMARK   43  A    between atoms: _101  and  _102
REMARK   44  A    between atoms: _104  and  _106
REMARK   45  A    between atoms: _106  and  _107
REMARK   46  A    between atoms: _106  and  _109
REMARK   47  A    between atoms: _109  and  _110
REMARK   48  A    between atoms: _112  and  _114
REMARK   49  A    between atoms: _114  and  _115
REMARK   50  A    between atoms: _114  and  _117
REMARK   51  A    between atoms: _117  and  _118
REMARK   52  A    between atoms: _118  and  _119
REMARK   53  A    between atoms: _124  and  _126
REMARK   54  A    between atoms: _126  and  _127
REMARK   55  A    between atoms: _126  and  _129
REMARK   56  A    between atoms: _129  and  _130
REMARK   57  A    between atoms: _133  and  _135
REMARK   58  A    between atoms: _135  and  _136
REMARK   59  A    between atoms: _139  and  _141
REMARK   60  A    between atoms: _141  and  _142
REMARK   61  A    between atoms: _141  and  _144
REMARK   62  A    between atoms: _144  and  _145
REMARK   63  A    between atoms: _148  and  _150
REMARK   64  A    between atoms: _150  and  _151
REMARK   65  A    between atoms: _150  and  _153
REMARK   66  A    between atoms: _153  and  _154
REMARK   67  A    between atoms: _164  and  _166
REMARK   68  A    between atoms: _166  and  _167
REMARK   69  A    between atoms: _170  and  _172
REMARK   70  A    between atoms: _172  and  _173
REMARK   71  A    between atoms: _172  and  _175
REMARK   72  A    between atoms: _175  and  _176
REMARK   73  A    between atoms: _186  and  _188
REMARK   74  A    between atoms: _188  and  _189
REMARK   75  A    between atoms: _188  and  _191
REMARK   76  A    between atoms: _191  and  _192
REMARK   77  A    between atoms: _198  and  _200
REMARK   78  A    between atoms: _200  and  _201
REMARK   79  A    between atoms: _200  and  _203
REMARK   80  A    between atoms: _203  and  _204
REMARK   81  A    between atoms: _204  and  _205
REMARK   82  A    between atoms: _207  and  _209
REMARK   83  A    between atoms: _209  and  _210
REMARK   84  A    between atoms: _209  and  _212
REMARK   85  A    between atoms: _212  and  _213
REMARK   86  A    between atoms: _218  and  _219
REMARK   87  A    between atoms: _221  and  _223
REMARK   88  A    between atoms: _223  and  _224
REMARK   89  A    between atoms: _223  and  _226
REMARK   90  A    between atoms: _226  and  _227
REMARK   91  A    between atoms: _237  and  _239
REMARK   92  A    between atoms: _239  and  _240
REMARK   93  A    between atoms: _239  and  _242
REMARK   94  A    between atoms: _242  and  _243
REMARK   95  A    between atoms: _248  and  _250
REMARK   96  A    between atoms: _250  and  _251
REMARK   97  A    between atoms: _250  and  _253
REMARK   98  A    between atoms: _253  and  _254
REMARK                            x       y       z     vdW  Elec       q    Type
REMARK                         _______ _______ _______ _____ _____    ______ ____
ROOT
ATOM      1  CA  GLY A   1      35.296  36.849  -7.620  0.00  0.00    +0.156 C 
ENDROOT
BRANCH   1   2
ATOM      2  N   GLY A   1      34.683  35.719  -6.926  0.00  0.00    -0.238 NA
ATOM      3  H   GLY A   1      34.721  34.777  -7.364  0.00  0.00    +0.142 HD
ENDBRANCH   1   2
BRANCH   1   4
ATOM      4  C   GLY A   1      34.338  37.878  -8.186  0.00  0.00    +0.226 C 
ATOM      5  O   GLY A   1      34.685  39.044  -8.367  0.00  0.00    -0.287 OA
ENDBRANCH   1   4
TORSDOF 2
REMARK  Name = ../refined-set-2016/4trc/4trc_pocket.pdb
REMARK  98 active torsions:
REMARK  status: ('A' for Active; 'I' for Inactive)
REMARK    1  A    between atoms: _2  and  _3
REMARK    2  A    between atoms: _8  and  _10
REMARK    3  A    between atoms: _10  and  _11
REMARK    4  A    between atoms: _10  and  _13
REMARK    5  A    between atoms: _13  and  _14
REMARK    6  A    between atoms: _14  and  _15
REMARK    7  A    between atoms: _15  and  _16
REMARK    8  A    between atoms: _16  and  _17
REMARK    9  A    between atoms: _21  and  _23
REMARK   10  A    between atoms: _23  and  _24
REMARK   11  A    between atoms: _23  and  _26
REMARK   12  A    between atoms: _29  and  _31
REMARK   13  A    between atoms: _31  and  _32
REMARK   14  A    between atoms: _34  and  _36
REMARK   15  A    between atoms: _36  and  _37
REMARK   16  A    between atoms: _36  and  _39
REMARK   17  A    between atoms: _39  and  _40
REMARK   18  A    between atoms: _45  and  _47
REMARK   19  A    between atoms: _47  and  _48
REMARK   20  A    between atoms: _47  and  _50
REMARK   21  A    between atoms: _50  and  _51
REMARK   22  A    between atoms: _54  and  _56
REMARK   23  A    between atoms: _56  and  _57
REMARK   24  A    between atoms: _56  and  _59
REMARK   25  A    between atoms: _59  and  _60
REMARK   26  A    between atoms: _63  and  _65
REMARK   27  A    between atoms: _65  and  _66
REMARK   28  A    between atoms: _65  and  _68
REMARK   29  A    between atoms: _68  and  _69
REMARK   30  A    between atoms: _72  and  _74
REMARK   31  A    between atoms: _74  and  _75
REMARK   32  A    between atoms: _74  and  _77
REMARK   33  A    between atoms: _77  and  _78
REMARK   34  A    between atoms: _81  and  _83
REMARK   35  A    between atoms: _83  and  _84
REMARK   36  A    between atoms: _83  and  _86
REMARK   37  A    between atoms: _86  and  _87
REMARK   38  A    between atoms: _90  and  _92
REMARK   39  A    between atoms: _92  and  _93
REMARK   40  A    between atoms: _92  and  _95
REMARK   41  A    between atoms: _95  and  _96
REMARK   42  A    between atoms: _99  and  _101
REMARK   43  A    between atoms: _101  and  _102
REMARK   44  A    between atoms: _104  and  _106
REMARK   45  A    between atoms: _106  and  _107
REMARK   46  A    between atoms: _106  and  _109
REMARK   47  A    between atoms: _109  and  _110
REMARK   48  A    between atoms: _112  and  _114
REMARK   49  A    between atoms: _114  and  _115
REMARK   50  A    between atoms: _114  and  _117
REMARK   51  A    between atoms: _117  and  _118
REMARK   52  A    between atoms: _118  and  _119
REMARK   53  A    between atoms: _124  and  _126
REMARK   54  A    between atoms: _126  and  _127
REMARK   55  A    between atoms: _126  and  _129
REMARK   56  A    between atoms: _129  and  _130
REMARK   57  A    between atoms: _133  and  _135
REMARK   58  A    between atoms: _135  and  _136
REMARK   59  A    between atoms: _139  and  _141
REMARK   60  A    between atoms: _141  and  _142
REMARK   61  A    between atoms: _141  and  _144
REMARK   62  A    between atoms: _144  and  _145
REMARK   63  A    between atoms: _148  and  _150
REMARK   64  A    between atoms: _150  and  _151
REMARK   65  A    between atoms: _150  and  _153
REMARK   66  A    between atoms: _153  and  _154
REMARK   67  A    between atoms: _164  and  _166
REMARK   68  A    between atoms: _166  and  _167
REMARK   69  A    between atoms: _170  and  _172
REMARK   70  A    between atoms: _172  and  _173
REMARK   71  A    between atoms: _172  and  _175
REMARK   72  A    between atoms: _175  and  _176
REMARK   73  A    between atoms: _186  and  _188
REMARK   74  A    between atoms: _188  and  _189
REMARK   75  A    between atoms: _188  and  _191
REMARK   76  A    between atoms: _191  and  _192
REMARK   77  A    between atoms: _198  and  _200
REMARK   78  A    between atoms: _200  and  _201
REMARK   79  A    between atoms: _200  and  _203
REMARK   80  A    between atoms: _203  and  _204
REMARK   81  A    between atoms: _204  and  _205
REMARK   82  A    between atoms: _207  and  _209
REMARK   83  A    between atoms: _209  and  _210
REMARK   84  A    between atoms: _209  and  _212
REMARK   85  A    between atoms: _212  and  _213
REMARK   86  A    between atoms: _218  and  _219
REMARK   87  A    between atoms: _221  and  _223
REMARK   88  A    between atoms: _223  and  _224
REMARK   89  A    between atoms: _223  and  _226
REMARK   90  A    between atoms: _226  and  _227
REMARK   91  A    between atoms: _237  and  _239
REMARK   92  A    between atoms: _239  and  _240
REMARK   93  A    between atoms: _239  and  _242
REMARK   94  A    between atoms: _242  and  _243
REMARK   95  A    between atoms: _248  and  _250
REMARK   96  A    between atoms: _250  and  _251
REMARK   97  A    between atoms: _250  and  _253
REMARK   98  A    between atoms: _253  and  _254
REMARK                            x       y       z     vdW  Elec       q    Type
REMARK                         _______ _______ _______ _____ _____    ______ ____
ROOT
ATOM      1  CB  HIS A   1      39.419  26.083 -10.287  0.00  0.00    +0.072 C 
ENDROOT
BRANCH   1   2
ATOM      2  CG  HIS A   1      38.547  27.181 -10.808  0.00  0.00    +0.082 A 
ATOM      3  ND1 HIS A   1      38.037  28.176 -10.000  0.00  0.00    -0.227 NA
ATOM      4  CE1 HIS A   1      37.287  28.985 -10.725  0.00  0.00    +0.199 A 
ATOM      5  NE2 HIS A   1      37.281  28.543 -11.970  0.00  0.00    -0.221 NA
ATOM      6  CD2 HIS A   1      38.051  27.410 -12.046  0.00  0.00    +0.115 A 
ENDBRANCH   1   2
BRANCH   1   7
ATOM      7  CA  HIS A   1      38.628  24.872  -9.805  0.00  0.00    +0.139 C 
BRANCH   7   8
ATOM      8  N   HIS A   1      37.712  25.278  -8.749  0.00  0.00    -0.239 NA
ATOM      9  H   HIS A   1      38.101  25.628  -7.850  0.00  0.00    +0.142 HD
ENDBRANCH   7   8
BRANCH   7  10
ATOM     10  C   HIS A   1      39.544  23.742  -9.325  0.00  0.00    +0.224 C 
ATOM     11  O   HIS A   1      40.286  23.890  -8.349  0.00  0.00    -0.287 OA
ENDBRANCH   7  10
ENDBRANCH   1   7
TORSDOF 4
REMARK  Name = ../refined-set-2016/4trc/4trc_pocket.pdb
REMARK  98 active torsions:
REMARK  status: ('A' for Active; 'I' for Inactive)
REMARK    1  A    between atoms: _2  and  _3
REMARK    2  A    between atoms: _8  and  _10
REMARK    3  A    between atoms: _10  and  _11
REMARK    4  A    between atoms: _10  and  _13
REMARK    5  A    between atoms: _13  and  _14
REMARK    6  A    between atoms: _14  and  _15
REMARK    7  A    between atoms: _15  and  _16
REMARK    8  A    between atoms: _16  and  _17
REMARK    9  A    between atoms: _21  and  _23
REMARK   10  A    between atoms: _23  and  _24
REMARK   11  A    between atoms: _23  and  _26
REMARK   12  A    between atoms: _29  and  _31
REMARK   13  A    between atoms: _31  and  _32
REMARK   14  A    between atoms: _34  and  _36
REMARK   15  A    between atoms: _36  and  _37
REMARK   16  A    between atoms: _36  and  _39
REMARK   17  A    between atoms: _39  and  _40
REMARK   18  A    between atoms: _45  and  _47
REMARK   19  A    between atoms: _47  and  _48
REMARK   20  A    between atoms: _47  and  _50
REMARK   21  A    between atoms: _50  and  _51
REMARK   22  A    between atoms: _54  and  _56
REMARK   23  A    between atoms: _56  and  _57
REMARK   24  A    between atoms: _56  and  _59
REMARK   25  A    between atoms: _59  and  _60
REMARK   26  A    between atoms: _63  and  _65
REMARK   27  A    between atoms: _65  and  _66
REMARK   28  A    between atoms: _65  and  _68
REMARK   29  A    between atoms: _68  and  _69
REMARK   30  A    between atoms: _72  and  _74
REMARK   31  A    between atoms: _74  and  _75
REMARK   32  A    between atoms: _74  and  _77
REMARK   33  A    between atoms: _77  and  _78
REMARK   34  A    between atoms: _81  and  _83
REMARK   35  A    between atoms: _83  and  _84
REMARK   36  A    between atoms: _83  and  _86
REMARK   37  A    between atoms: _86  and  _87
REMARK   38  A    between atoms: _90  and  _92
REMARK   39  A    between atoms: _92  and  _93
REMARK   40  A    between atoms: _92  and  _95
REMARK   41  A    between atoms: _95  and  _96
REMARK   42  A    between atoms: _99  and  _101
REMARK   43  A    between atoms: _101  and  _102
REMARK   44  A    between atoms: _104  and  _106
REMARK   45  A    between atoms: _106  and  _107
REMARK   46  A    between atoms: _106  and  _109
REMARK   47  A    between atoms: _109  and  _110
REMARK   48  A    between atoms: _112  and  _114
REMARK   49  A    between atoms: _114  and  _115
REMARK   50  A    between atoms: _114  and  _117
REMARK   51  A    between atoms: _117  and  _118
REMARK   52  A    between atoms: _118  and  _119
REMARK   53  A    between atoms: _124  and  _126
REMARK   54  A    between atoms: _126  and  _127
REMARK   55  A    between atoms: _126  and  _129
REMARK   56  A    between atoms: _129  and  _130
REMARK   57  A    between atoms: _133  and  _135
REMARK   58  A    between atoms: _135  and  _136
REMARK   59  A    between atoms: _139  and  _141
REMARK   60  A    between atoms: _141  and  _142
REMARK   61  A    between atoms: _141  and  _144
REMARK   62  A    between atoms: _144  and  _145
REMARK   63  A    between atoms: _148  and  _150
REMARK   64  A    between atoms: _150  and  _151
REMARK   65  A    between atoms: _150  and  _153
REMARK   66  A    between atoms: _153  and  _154
REMARK   67  A    between atoms: _164  and  _166
REMARK   68  A    between atoms: _166  and  _167
REMARK   69  A    between atoms: _170  and  _172
REMARK   70  A    between atoms: _172  and  _173
REMARK   71  A    between atoms: _172  and  _175
REMARK   72  A    between atoms: _175  and  _176
REMARK   73  A    between atoms: _186  and  _188
REMARK   74  A    between atoms: _188  and  _189
REMARK   75  A    between atoms: _188  and  _191
REMARK   76  A    between atoms: _191  and  _192
REMARK   77  A    between atoms: _198  and  _200
REMARK   78  A    between atoms: _200  and  _201
REMARK   79  A    between atoms: _200  and  _203
REMARK   80  A    between atoms: _203  and  _204
REMARK   81  A    between atoms: _204  and  _205
REMARK   82  A    between atoms: _207  and  _209
REMARK   83  A    between atoms: _209  and  _210
REMARK   84  A    between atoms: _209  and  _212
REMARK   85  A    between atoms: _212  and  _213
REMARK   86  A    between atoms: _218  and  _219
REMARK   87  A    between atoms: _221  and  _223
REMARK   88  A    between atoms: _223  and  _224
REMARK   89  A    between atoms: _223  and  _226
REMARK   90  A    between atoms: _226  and  _227
REMARK   91  A    between atoms: _237  and  _239
REMARK   92  A    between atoms: _239  and  _240
REMARK   93  A    between atoms: _239  and  _242
REMARK   94  A    between atoms: _242  and  _243
REMARK   95  A    between atoms: _248  and  _250
REMARK   96  A    between atoms: _250  and  _251
REMARK   97  A    between atoms: _250  and  _253
REMARK   98  A    between atoms: _253  and  _254
REMARK                            x       y       z     vdW  Elec       q    Type
REMARK                         _______ _______ _______ _____ _____    ______ ____
ROOT
ATOM      1  CA  THR A   4      37.990  36.193 -17.918  0.00  0.00    +0.176 C 
ENDROOT
BRANCH   1   2
ATOM      2  C   THR A   4      39.454  35.872 -18.210  0.00  0.00    +0.243 C 
ATOM      3  N   ASP A   5      39.962  34.772 -17.664  0.00  0.00    -0.296 N 
ATOM      4  H   ASP A   5      39.372  34.188 -17.037  0.00  0.00    +0.150 HD
ATOM      5  O   THR A   4      40.120  36.628 -18.907  0.00  0.00    -0.273 OA
BRANCH   3   6
ATOM      6  CA  ASP A   5      41.344  34.374 -17.937  0.00  0.00    +0.160 C 
BRANCH   6   7
ATOM      7  C   ASP A   5      41.396  33.292 -19.027  0.00  0.00    +0.241 C 
ATOM      8  N   THR A   6      41.162  32.040 -18.644  0.00  0.00    -0.295 N 
ATOM      9  H   THR A   6      41.086  31.825 -17.629  0.00  0.00    +0.150 HD
ATOM     10  O   ASP A   5      41.633  33.594 -20.197  0.00  0.00    -0.273 OA
BRANCH   8  11
ATOM     11  CA  THR A   6      41.009  30.953 -19.621  0.00  0.00    +0.176 C 
BRANCH  11  12
ATOM     12  C   THR A   6      39.611  30.996 -20.218  0.00  0.00    +0.243 C 
ATOM     13  N   GLY A   7      38.653  31.494 -19.439  0.00  0.00    -0.296 N 
ATOM     14  H   GLY A   7      38.905  31.881 -18.507  0.00  0.00    +0.150 HD
ATOM     15  O   THR A   6      39.403  30.584 -21.350  0.00  0.00    -0.273 OA
BRANCH  13  16
ATOM     16  CA  GLY A   7      37.266  31.509 -19.862  0.00  0.00    +0.163 C 
BRANCH  16  17
ATOM     17  C   GLY A   7      36.531  30.268 -19.405  0.00  0.00    +0.229 C 
ATOM     18  O   GLY A   7      35.343  30.114 -19.672  0.00  0.00    -0.286 OA
ENDBRANCH  16  17
ENDBRANCH  13  16
ENDBRANCH  11  12
BRANCH  11  19
ATOM     19  CB  THR A   6      41.169  29.564 -18.970  0.00  0.00    +0.137 C 
ATOM     20  CG2 THR A   6      42.513  29.456 -18.227  0.00  0.00    +0.034 C 
BRANCH  19  21
ATOM     21  OG1 THR A   6      40.086  29.335 -18.048  0.00  0.00    -0.382 OA
ATOM     22  HG1 THR A   6      40.191  28.443 -17.632  0.00  0.00    +0.210 HD
ENDBRANCH  19  21
ENDBRANCH  11  19
ENDBRANCH   8  11
ENDBRANCH   6   7
BRANCH   6  23
ATOM     23  CB  ASP A   5      42.036  33.919 -16.649  0.00  0.00    +0.143 C 
BRANCH  23  24
ATOM     24  CG  ASP A   5      43.541  33.778 -16.810  0.00  0.00    +0.367 C 
ATOM     25  OD2 ASP A   5      44.254  33.760 -15.785  0.00  0.00    -0.246 OA
ATOM     26  OD1 ASP A   5      44.012  33.687 -17.962  0.00  0.00    -0.246 OA
ENDBRANCH  23  24
ENDBRANCH   6  23
ENDBRANCH   3   6
ENDBRANCH   1   2
BRANCH   1  29
ATOM     27  C   ILE A   3      37.895  37.181 -15.736  0.00  0.00    +0.241 C 
ATOM     28  O   ILE A   3      37.602  36.102 -15.228  0.00  0.00    -0.273 OA
ATOM     29  N   THR A   4      37.943  37.347 -17.047  0.00  0.00    -0.295 N 
ATOM     30  H   THR A   4      37.947  38.305 -17.451  0.00  0.00    +0.150 HD
BRANCH  27  31
ATOM     31  CA  ILE A   3      38.180  38.420 -14.872  0.00  0.00    +0.149 C 
BRANCH  31  33
ATOM     32  C   ASP A   2      36.803  39.662 -13.318  0.00  0.00    +0.241 C 
ATOM     33  N   ILE A   3      37.285  38.494 -13.723  0.00  0.00    -0.297 N 
ATOM     34  H   ILE A   3      37.022  37.624 -13.217  0.00  0.00    +0.150 HD
ATOM     35  O   ASP A   2      36.994  40.696 -13.951  0.00  0.00    -0.273 OA
BRANCH  32  36
ATOM     36  CA  ASP A   2      35.962  39.674 -12.020  0.00  0.00    +0.160 C 
BRANCH  36  38
ATOM     37  C   ASP A   1      33.808  38.811 -12.776  0.00  0.00    +0.239 C 
ATOM     38  N   ASP A   2      34.879  38.684 -12.002  0.00  0.00    -0.297 N 
ATOM     39  H   ASP A   2      34.952  37.863 -11.368  0.00  0.00    +0.150 HD
ATOM     40  O   ASP A   1      33.663  39.745 -13.558  0.00  0.00    -0.274 OA
BRANCH  37  41
ATOM     41  CA  ASP A   1      32.752  37.709 -12.686  0.00  0.00    +0.156 C 
BRANCH  41  42
ATOM     42  N   ASP A   1      31.543  38.129 -13.388  0.00  0.00    -0.238 NA
ATOM     43  H   ASP A   1      31.640  38.617 -14.301  0.00  0.00    +0.142 HD
ENDBRANCH  41  42
BRANCH  41  44
ATOM     44  CB  ASP A   1      33.298  36.421 -13.299  0.00  0.00    +0.140 C 
BRANCH  44  45
ATOM     45  CG  ASP A   1      34.127  35.610 -12.311  0.00  0.00    +0.367 C 
ATOM     46  OD2 ASP A   1      34.259  36.049 -11.145  0.00  0.00    -0.246 OA
ATOM     47  OD1 ASP A   1      34.636  34.525 -12.690  0.00  0.00    -0.246 OA
ENDBRANCH  44  45
ENDBRANCH  41  44
ENDBRANCH  37  41
ENDBRANCH  36  38
BRANCH  36  48
ATOM     48  CB  ASP A   2      36.853  39.530 -10.775  0.00  0.00    +0.143 C 
BRANCH  48  49
ATOM     49  CG  ASP A   2      37.307  38.095 -10.527  0.00  0.00    +0.367 C 
ATOM     50  OD2 ASP A   2      37.963  37.865  -9.494  0.00  0.00    -0.246 OA
ATOM     51  OD1 ASP A   2      37.016  37.194 -11.341  0.00  0.00    -0.246 OA
ENDBRANCH  48  49
ENDBRANCH  36  48
ENDBRANCH  32  36
ENDBRANCH  31  33
BRANCH  31  52
ATOM     52  CB  ILE A   3      39.677  38.459 -14.409  0.00  0.00    +0.027 C 
ATOM     53  CG2 ILE A   3      40.021  37.266 -13.517  0.00  0.00    +0.002 C 
BRANCH  52  54
ATOM     54  CG1 ILE A   3      40.643  38.552 -15.590  0.00  0.00    +0.002 C 
ATOM     55  CD1 ILE A   3      42.023  39.061 -15.191  0.00  0.00    +0.000 C 
ENDBRANCH  52  54
ENDBRANCH  31  52
ENDBRANCH  27  31
ENDBRANCH   1  29
BRANCH   1  56
ATOM     56  CB  THR A   4      37.280  36.451 -19.235  0.00  0.00    +0.137 C 
ATOM     57  CG2 THR A   4      37.299  35.186 -20.091  0.00  0.00    +0.034 C 
BRANCH  56  58
ATOM     58  OG1 THR A   4      35.931  36.831 -18.978  0.00  0.00    -0.382 OA
ATOM     59  HG1 THR A   4      35.920  37.655 -18.429  0.00  0.00    +0.210 HD
ENDBRANCH  56  58
ENDBRANCH   1  56
TORSDOF 26
REMARK  Name = ../refined-set-2016/4trc/4trc_pocket.pdb
REMARK  98 active torsions:
REMARK  status: ('A' for Active; 'I' for Inactive)
REMARK    1  A    between atoms: _2  and  _3
REMARK    2  A    between atoms: _8  and  _10
REMARK    3  A    between atoms: _10  and  _11
REMARK    4  A    between atoms: _10  and  _13
REMARK    5  A    between atoms: _13  and  _14
REMARK    6  A    between atoms: _14  and  _15
REMARK    7  A    between atoms: _15  and  _16
REMARK    8  A    between atoms: _16  and  _17
REMARK    9  A    between atoms: _21  and  _23
REMARK   10  A    between atoms: _23  and  _24
REMARK   11  A    between atoms: _23  and  _26
REMARK   12  A    between atoms: _29  and  _31
REMARK   13  A    between atoms: _31  and  _32
REMARK   14  A    between atoms: _34  and  _36
REMARK   15  A    between atoms: _36  and  _37
REMARK   16  A    between atoms: _36  and  _39
REMARK   17  A    between atoms: _39  and  _40
REMARK   18  A    between atoms: _45  and  _47
REMARK   19  A    between atoms: _47  and  _48
REMARK   20  A    between atoms: _47  and  _50
REMARK   21  A    between atoms: _50  and  _51
REMARK   22  A    between atoms: _54  and  _56
REMARK   23  A    between atoms: _56  and  _57
REMARK   24  A    between atoms: _56  and  _59
REMARK   25  A    between atoms: _59  and  _60
REMARK   26  A    between atoms: _63  and  _65
REMARK   27  A    between atoms: _65  and  _66
REMARK   28  A    between atoms: _65  and  _68
REMARK   29  A    between atoms: _68  and  _69
REMARK   30  A    between atoms: _72  and  _74
REMARK   31  A    between atoms: _74  and  _75
REMARK   32  A    between atoms: _74  and  _77
REMARK   33  A    between atoms: _77  and  _78
REMARK   34  A    between atoms: _81  and  _83
REMARK   35  A    between atoms: _83  and  _84
REMARK   36  A    between atoms: _83  and  _86
REMARK   37  A    between atoms: _86  and  _87
REMARK   38  A    between atoms: _90  and  _92
REMARK   39  A    between atoms: _92  and  _93
REMARK   40  A    between atoms: _92  and  _95
REMARK   41  A    between atoms: _95  and  _96
REMARK   42  A    between atoms: _99  and  _101
REMARK   43  A    between atoms: _101  and  _102
REMARK   44  A    between atoms: _104  and  _106
REMARK   45  A    between atoms: _106  and  _107
REMARK   46  A    between atoms: _106  and  _109
REMARK   47  A    between atoms: _109  and  _110
REMARK   48  A    between atoms: _112  and  _114
REMARK   49  A    between atoms: _114  and  _115
REMARK   50  A    between atoms: _114  and  _117
REMARK   51  A    between atoms: _117  and  _118
REMARK   52  A    between atoms: _118  and  _119
REMARK   53  A    between atoms: _124  and  _126
REMARK   54  A    between atoms: _126  and  _127
REMARK   55  A    between atoms: _126  and  _129
REMARK   56  A    between atoms: _129  and  _130
REMARK   57  A    between atoms: _133  and  _135
REMARK   58  A    between atoms: _135  and  _136
REMARK   59  A    between atoms: _139  and  _141
REMARK   60  A    between atoms: _141  and  _142
REMARK   61  A    between atoms: _141  and  _144
REMARK   62  A    between atoms: _144  and  _145
REMARK   63  A    between atoms: _148  and  _150
REMARK   64  A    between atoms: _150  and  _151
REMARK   65  A    between atoms: _150  and  _153
REMARK   66  A    between atoms: _153  and  _154
REMARK   67  A    between atoms: _164  and  _166
REMARK   68  A    between atoms: _166  and  _167
REMARK   69  A    between atoms: _170  and  _172
REMARK   70  A    between atoms: _172  and  _173
REMARK   71  A    between atoms: _172  and  _175
REMARK   72  A    between atoms: _175  and  _176
REMARK   73  A    between atoms: _186  and  _188
REMARK   74  A    between atoms: _188  and  _189
REMARK   75  A    between atoms: _188  and  _191
REMARK   76  A    between atoms: _191  and  _192
REMARK   77  A    between atoms: _198  and  _200
REMARK   78  A    between atoms: _200  and  _201
REMARK   79  A    between atoms: _200  and  _203
REMARK   80  A    between atoms: _203  and  _204
REMARK   81  A    between atoms: _204  and  _205
REMARK   82  A    between atoms: _207  and  _209
REMARK   83  A    between atoms: _209  and  _210
REMARK   84  A    between atoms: _209  and  _212
REMARK   85  A    between atoms: _212  and  _213
REMARK   86  A    between atoms: _218  and  _219
REMARK   87  A    between atoms: _221  and  _223
REMARK   88  A    between atoms: _223  and  _224
REMARK   89  A    between atoms: _223  and  _226
REMARK   90  A    between atoms: _226  and  _227
REMARK   91  A    between atoms: _237  and  _239
REMARK   92  A    between atoms: _239  and  _240
REMARK   93  A    between atoms: _239  and  _242
REMARK   94  A    between atoms: _242  and  _243
REMARK   95  A    between atoms: _248  and  _250
REMARK   96  A    between atoms: _250  and  _251
REMARK   97  A    between atoms: _250  and  _253
REMARK   98  A    between atoms: _253  and  _254
REMARK                            x       y       z     vdW  Elec       q    Type
REMARK                         _______ _______ _______ _____ _____    ______ ____
ROOT
ATOM      1  CA  SER A   1      34.534  29.810 -15.432  0.00  0.00    +0.163 C 
ENDROOT
BRANCH   1   2
ATOM      2  N   SER A   1      35.566  29.483 -16.407  0.00  0.00    -0.237 NA
ATOM      3  H   SER A   1      36.424  30.070 -16.451  0.00  0.00    +0.142 HD
ENDBRANCH   1   2
BRANCH   1   4
ATOM      4  CB  SER A   1      33.241  30.325 -16.061  0.00  0.00    +0.227 C 
ATOM      5  OG  SER A   1      32.160  29.818 -15.757  0.00  0.00    -0.287 OA
ENDBRANCH   1   4
BRANCH   1   6
ATOM      6  C   SER A   1      35.072  30.811 -14.412  0.00  0.00    +0.162 C 
BRANCH   6   7
ATOM      7  O   SER A   1      36.205  30.271 -13.750  0.00  0.00    -0.380 OA
ATOM      8  H   SER A   1      35.947  29.437 -13.283  0.00  0.00    +0.211 HD
ENDBRANCH   6   7
ENDBRANCH   1   6
TORSDOF 4
REMARK  Name = ../refined-set-2016/4trc/4trc_pocket.pdb
REMARK  98 active torsions:
REMARK  status: ('A' for Active; 'I' for Inactive)
REMARK    1  A    between atoms: _2  and  _3
REMARK    2  A    between atoms: _8  and  _10
REMARK    3  A    between atoms: _10  and  _11
REMARK    4  A    between atoms: _10  and  _13
REMARK    5  A    between atoms: _13  and  _14
REMARK    6  A    between atoms: _14  and  _15
REMARK    7  A    between atoms: _15  and  _16
REMARK    8  A    between atoms: _16  and  _17
REMARK    9  A    between atoms: _21  and  _23
REMARK   10  A    between atoms: _23  and  _24
REMARK   11  A    between atoms: _23  and  _26
REMARK   12  A    between atoms: _29  and  _31
REMARK   13  A    between atoms: _31  and  _32
REMARK   14  A    between atoms: _34  and  _36
REMARK   15  A    between atoms: _36  and  _37
REMARK   16  A    between atoms: _36  and  _39
REMARK   17  A    between atoms: _39  and  _40
REMARK   18  A    between atoms: _45  and  _47
REMARK   19  A    between atoms: _47  and  _48
REMARK   20  A    between atoms: _47  and  _50
REMARK   21  A    between atoms: _50  and  _51
REMARK   22  A    between atoms: _54  and  _56
REMARK   23  A    between atoms: _56  and  _57
REMARK   24  A    between atoms: _56  and  _59
REMARK   25  A    between atoms: _59  and  _60
REMARK   26  A    between atoms: _63  and  _65
REMARK   27  A    between atoms: _65  and  _66
REMARK   28  A    between atoms: _65  and  _68
REMARK   29  A    between atoms: _68  and  _69
REMARK   30  A    between atoms: _72  and  _74
REMARK   31  A    between atoms: _74  and  _75
REMARK   32  A    between atoms: _74  and  _77
REMARK   33  A    between atoms: _77  and  _78
REMARK   34  A    between atoms: _81  and  _83
REMARK   35  A    between atoms: _83  and  _84
REMARK   36  A    between atoms: _83  and  _86
REMARK   37  A    between atoms: _86  and  _87
REMARK   38  A    between atoms: _90  and  _92
REMARK   39  A    between atoms: _92  and  _93
REMARK   40  A    between atoms: _92  and  _95
REMARK   41  A    between atoms: _95  and  _96
REMARK   42  A    between atoms: _99  and  _101
REMARK   43  A    between atoms: _101  and  _102
REMARK   44  A    between atoms: _104  and  _106
REMARK   45  A    between atoms: _106  and  _107
REMARK   46  A    between atoms: _106  and  _109
REMARK   47  A    between atoms: _109  and  _110
REMARK   48  A    between atoms: _112  and  _114
REMARK   49  A    between atoms: _114  and  _115
REMARK   50  A    between atoms: _114  and  _117
REMARK   51  A    between atoms: _117  and  _118
REMARK   52  A    between atoms: _118  and  _119
REMARK   53  A    between atoms: _124  and  _126
REMARK   54  A    between atoms: _126  and  _127
REMARK   55  A    between atoms: _126  and  _129
REMARK   56  A    between atoms: _129  and  _130
REMARK   57  A    between atoms: _133  and  _135
REMARK   58  A    between atoms: _135  and  _136
REMARK   59  A    between atoms: _139  and  _141
REMARK   60  A    between atoms: _141  and  _142
REMARK   61  A    between atoms: _141  and  _144
REMARK   62  A    between atoms: _144  and  _145
REMARK   63  A    between atoms: _148  and  _150
REMARK   64  A    between atoms: _150  and  _151
REMARK   65  A    between atoms: _150  and  _153
REMARK   66  A    between atoms: _153  and  _154
REMARK   67  A    between atoms: _164  and  _166
REMARK   68  A    between atoms: _166  and  _167
REMARK   69  A    between atoms: _170  and  _172
REMARK   70  A    between atoms: _172  and  _173
REMARK   71  A    between atoms: _172  and  _175
REMARK   72  A    between atoms: _175  and  _176
REMARK   73  A    between atoms: _186  and  _188
REMARK   74  A    between atoms: _188  and  _189
REMARK   75  A    between atoms: _188  and  _191
REMARK   76  A    between atoms: _191  and  _192
REMARK   77  A    between atoms: _198  and  _200
REMARK   78  A    between atoms: _200  and  _201
REMARK   79  A    between atoms: _200  and  _203
REMARK   80  A    between atoms: _203  and  _204
REMARK   81  A    between atoms: _204  and  _205
REMARK   82  A    between atoms: _207  and  _209
REMARK   83  A    between atoms: _209  and  _210
REMARK   84  A    between atoms: _209  and  _212
REMARK   85  A    between atoms: _212  and  _213
REMARK   86  A    between atoms: _218  and  _219
REMARK   87  A    between atoms: _221  and  _223
REMARK   88  A    between atoms: _223  and  _224
REMARK   89  A    between atoms: _223  and  _226
REMARK   90  A    between atoms: _226  and  _227
REMARK   91  A    between atoms: _237  and  _239
REMARK   92  A    between atoms: _239  and  _240
REMARK   93  A    between atoms: _239  and  _242
REMARK   94  A    between atoms: _242  and  _243
REMARK   95  A    between atoms: _248  and  _250
REMARK   96  A    between atoms: _250  and  _251
REMARK   97  A    between atoms: _250  and  _253
REMARK   98  A    between atoms: _253  and  _254
REMARK                            x       y       z     vdW  Elec       q    Type
REMARK                         _______ _______ _______ _____ _____    ______ ____
ROOT
ATOM      1  CB  GLN A   1      40.124  42.332 -16.478  0.00  0.00    +0.035 C 
ENDROOT
BRANCH   1   2
ATOM      2  CA  GLN A   1      38.835  42.274 -17.286  0.00  0.00    +0.134 C 
BRANCH   2   3
ATOM      3  N   GLN A   1      37.680  42.438 -16.409  0.00  0.00    -0.239 NA
ATOM      4  H   GLN A   1      37.429  41.682 -15.741  0.00  0.00    +0.142 HD
ENDBRANCH   2   3
BRANCH   2   5
ATOM      5  C   GLN A   1      38.773  41.025 -18.131  0.00  0.00    +0.224 C 
ATOM      6  O   GLN A   1      38.105  40.064 -17.777  0.00  0.00    -0.287 OA
ENDBRANCH   2   5
ENDBRANCH   1   2
BRANCH   1   7
ATOM      7  CG  GLN A   1      40.539  43.774 -16.221  0.00  0.00    +0.087 C 
BRANCH   7   8
ATOM      8  CD  GLN A   1      41.166  43.987 -14.876  0.00  0.00    +0.219 C 
ATOM      9  NE2 GLN A   1      40.967  43.040 -13.975  0.00  0.00    -0.329 N 
ATOM     10 HE21 GLN A   1      41.383  43.130 -13.026  0.00  0.00    +0.145 HD
ATOM     11 HE22 GLN A   1      40.395  42.205 -14.215  0.00  0.00    +0.145 HD
ATOM     12  OE1 GLN A   1      41.835  44.997 -14.646  0.00  0.00    -0.275 OA
ENDBRANCH   7   8
ENDBRANCH   1   7
TORSDOF 5
REMARK  Name = ../refined-set-2016/4trc/4trc_pocket.pdb
REMARK  98 active torsions:
REMARK  status: ('A' for Active; 'I' for Inactive)
REMARK    1  A    between atoms: _2  and  _3
REMARK    2  A    between atoms: _8  and  _10
REMARK    3  A    between atoms: _10  and  _11
REMARK    4  A    between atoms: _10  and  _13
REMARK    5  A    between atoms: _13  and  _14
REMARK    6  A    between atoms: _14  and  _15
REMARK    7  A    between atoms: _15  and  _16
REMARK    8  A    between atoms: _16  and  _17
REMARK    9  A    between atoms: _21  and  _23
REMARK   10  A    between atoms: _23  and  _24
REMARK   11  A    between atoms: _23  and  _26
REMARK   12  A    between atoms: _29  and  _31
REMARK   13  A    between atoms: _31  and  _32
REMARK   14  A    between atoms: _34  and  _36
REMARK   15  A    between atoms: _36  and  _37
REMARK   16  A    between atoms: _36  and  _39
REMARK   17  A    between atoms: _39  and  _40
REMARK   18  A    between atoms: _45  and  _47
REMARK   19  A    between atoms: _47  and  _48
REMARK   20  A    between atoms: _47  and  _50
REMARK   21  A    between atoms: _50  and  _51
REMARK   22  A    between atoms: _54  and  _56
REMARK   23  A    between atoms: _56  and  _57
REMARK   24  A    between atoms: _56  and  _59
REMARK   25  A    between atoms: _59  and  _60
REMARK   26  A    between atoms: _63  and  _65
REMARK   27  A    between atoms: _65  and  _66
REMARK   28  A    between atoms: _65  and  _68
REMARK   29  A    between atoms: _68  and  _69
REMARK   30  A    between atoms: _72  and  _74
REMARK   31  A    between atoms: _74  and  _75
REMARK   32  A    between atoms: _74  and  _77
REMARK   33  A    between atoms: _77  and  _78
REMARK   34  A    between atoms: _81  and  _83
REMARK   35  A    between atoms: _83  and  _84
REMARK   36  A    between atoms: _83  and  _86
REMARK   37  A    between atoms: _86  and  _87
REMARK   38  A    between atoms: _90  and  _92
REMARK   39  A    between atoms: _92  and  _93
REMARK   40  A    between atoms: _92  and  _95
REMARK   41  A    between atoms: _95  and  _96
REMARK   42  A    between atoms: _99  and  _101
REMARK   43  A    between atoms: _101  and  _102
REMARK   44  A    between atoms: _104  and  _106
REMARK   45  A    between atoms: _106  and  _107
REMARK   46  A    between atoms: _106  and  _109
REMARK   47  A    between atoms: _109  and  _110
REMARK   48  A    between atoms: _112  and  _114
REMARK   49  A    between atoms: _114  and  _115
REMARK   50  A    between atoms: _114  and  _117
REMARK   51  A    between atoms: _117  and  _118
REMARK   52  A    between atoms: _118  and  _119
REMARK   53  A    between atoms: _124  and  _126
REMARK   54  A    between atoms: _126  and  _127
REMARK   55  A    between atoms: _126  and  _129
REMARK   56  A    between atoms: _129  and  _130
REMARK   57  A    between atoms: _133  and  _135
REMARK   58  A    between atoms: _135  and  _136
REMARK   59  A    between atoms: _139  and  _141
REMARK   60  A    between atoms: _141  and  _142
REMARK   61  A    between atoms: _141  and  _144
REMARK   62  A    between atoms: _144  and  _145
REMARK   63  A    between atoms: _148  and  _150
REMARK   64  A    between atoms: _150  and  _151
REMARK   65  A    between atoms: _150  and  _153
REMARK   66  A    between atoms: _153  and  _154
REMARK   67  A    between atoms: _164  and  _166
REMARK   68  A    between atoms: _166  and  _167
REMARK   69  A    between atoms: _170  and  _172
REMARK   70  A    between atoms: _172  and  _173
REMARK   71  A    between atoms: _172  and  _175
REMARK   72  A    between atoms: _175  and  _176
REMARK   73  A    between atoms: _186  and  _188
REMARK   74  A    between atoms: _188  and  _189
REMARK   75  A    between atoms: _188  and  _191
REMARK   76  A    between atoms: _191  and  _192
REMARK   77  A    between atoms: _198  and  _200
REMARK   78  A    between atoms: _200  and  _201
REMARK   79  A    between atoms: _200  and  _203
REMARK   80  A    between atoms: _203  and  _204
REMARK   81  A    between atoms: _204  and  _205
REMARK   82  A    between atoms: _207  and  _209
REMARK   83  A    between atoms: _209  and  _210
REMARK   84  A    between atoms: _209  and  _212
REMARK   85  A    between atoms: _212  and  _213
REMARK   86  A    between atoms: _218  and  _219
REMARK   87  A    between atoms: _221  and  _223
REMARK   88  A    between atoms: _223  and  _224
REMARK   89  A    between atoms: _223  and  _226
REMARK   90  A    between atoms: _226  and  _227
REMARK   91  A    between atoms: _237  and  _239
REMARK   92  A    between atoms: _239  and  _240
REMARK   93  A    between atoms: _239  and  _242
REMARK   94  A    between atoms: _242  and  _243
REMARK   95  A    between atoms: _248  and  _250
REMARK   96  A    between atoms: _250  and  _251
REMARK   97  A    between atoms: _250  and  _253
REMARK   98  A    between atoms: _253  and  _254
REMARK                            x       y       z     vdW  Elec       q    Type
REMARK                         _______ _______ _______ _____ _____    ______ ____
ROOT
ATOM      1  CA  ILE A   1      42.804  38.495 -21.195  0.00  0.00    +0.133 C 
ENDROOT
BRANCH   1   2
ATOM      2  N   ILE A   1      41.454  38.718 -20.698  0.00  0.00    -0.239 NA
ATOM      3  H   ILE A   1      40.963  37.955 -20.190  0.00  0.00    +0.142 HD
ENDBRANCH   1   2
BRANCH   1   4
ATOM      4  CB  ILE A   1      43.627  37.617 -20.253  0.00  0.00    +0.023 C 
ATOM      5  CG2 ILE A   1      45.091  37.637 -20.673  0.00  0.00    +0.002 C 
BRANCH   4   6
ATOM      6  CG1 ILE A   1      43.461  38.097 -18.811  0.00  0.00    +0.002 C 
ATOM      7  CD1 ILE A   1      44.449  37.468 -17.837  0.00  0.00    +0.000 C 
ENDBRANCH   4   6
ENDBRANCH   1   4
BRANCH   1   8
ATOM      8  C   ILE A   1      42.763  37.872 -22.582  0.00  0.00    +0.224 C 
ATOM      9  O   ILE A   1      42.615  36.657 -22.726  0.00  0.00    -0.287 OA
ENDBRANCH   1   8
TORSDOF 4
REMARK  Name = ../refined-set-2016/4trc/4trc_pocket.pdb
REMARK  98 active torsions:
REMARK  status: ('A' for Active; 'I' for Inactive)
REMARK    1  A    between atoms: _2  and  _3
REMARK    2  A    between atoms: _8  and  _10
REMARK    3  A    between atoms: _10  and  _11
REMARK    4  A    between atoms: _10  and  _13
REMARK    5  A    between atoms: _13  and  _14
REMARK    6  A    between atoms: _14  and  _15
REMARK    7  A    between atoms: _15  and  _16
REMARK    8  A    between atoms: _16  and  _17
REMARK    9  A    between atoms: _21  and  _23
REMARK   10  A    between atoms: _23  and  _24
REMARK   11  A    between atoms: _23  and  _26
REMARK   12  A    between atoms: _29  and  _31
REMARK   13  A    between atoms: _31  and  _32
REMARK   14  A    between atoms: _34  and  _36
REMARK   15  A    between atoms: _36  and  _37
REMARK   16  A    between atoms: _36  and  _39
REMARK   17  A    between atoms: _39  and  _40
REMARK   18  A    between atoms: _45  and  _47
REMARK   19  A    between atoms: _47  and  _48
REMARK   20  A    between atoms: _47  and  _50
REMARK   21  A    between atoms: _50  and  _51
REMARK   22  A    between atoms: _54  and  _56
REMARK   23  A    between atoms: _56  and  _57
REMARK   24  A    between atoms: _56  and  _59
REMARK   25  A    between atoms: _59  and  _60
REMARK   26  A    between atoms: _63  and  _65
REMARK   27  A    between atoms: _65  and  _66
REMARK   28  A    between atoms: _65  and  _68
REMARK   29  A    between atoms: _68  and  _69
REMARK   30  A    between atoms: _72  and  _74
REMARK   31  A    between atoms: _74  and  _75
REMARK   32  A    between atoms: _74  and  _77
REMARK   33  A    between atoms: _77  and  _78
REMARK   34  A    between atoms: _81  and  _83
REMARK   35  A    between atoms: _83  and  _84
REMARK   36  A    between atoms: _83  and  _86
REMARK   37  A    between atoms: _86  and  _87
REMARK   38  A    between atoms: _90  and  _92
REMARK   39  A    between atoms: _92  and  _93
REMARK   40  A    between atoms: _92  and  _95
REMARK   41  A    between atoms: _95  and  _96
REMARK   42  A    between atoms: _99  and  _101
REMARK   43  A    between atoms: _101  and  _102
REMARK   44  A    between atoms: _104  and  _106
REMARK   45  A    between atoms: _106  and  _107
REMARK   46  A    between atoms: _106  and  _109
REMARK   47  A    between atoms: _109  and  _110
REMARK   48  A    between atoms: _112  and  _114
REMARK   49  A    between atoms: _114  and  _115
REMARK   50  A    between atoms: _114  and  _117
REMARK   51  A    between atoms: _117  and  _118
REMARK   52  A    between atoms: _118  and  _119
REMARK   53  A    between atoms: _124  and  _126
REMARK   54  A    between atoms: _126  and  _127
REMARK   55  A    between atoms: _126  and  _129
REMARK   56  A    between atoms: _129  and  _130
REMARK   57  A    between atoms: _133  and  _135
REMARK   58  A    between atoms: _135  and  _136
REMARK   59  A    between atoms: _139  and  _141
REMARK   60  A    between atoms: _141  and  _142
REMARK   61  A    between atoms: _141  and  _144
REMARK   62  A    between atoms: _144  and  _145
REMARK   63  A    between atoms: _148  and  _150
REMARK   64  A    between atoms: _150  and  _151
REMARK   65  A    between atoms: _150  and  _153
REMARK   66  A    between atoms: _153  and  _154
REMARK   67  A    between atoms: _164  and  _166
REMARK   68  A    between atoms: _166  and  _167
REMARK   69  A    between atoms: _170  and  _172
REMARK   70  A    between atoms: _172  and  _173
REMARK   71  A    between atoms: _172  and  _175
REMARK   72  A    between atoms: _175  and  _176
REMARK   73  A    between atoms: _186  and  _188
REMARK   74  A    between atoms: _188  and  _189
REMARK   75  A    between atoms: _188  and  _191
REMARK   76  A    between atoms: _191  and  _192
REMARK   77  A    between atoms: _198  and  _200
REMARK   78  A    between atoms: _200  and  _201
REMARK   79  A    between atoms: _200  and  _203
REMARK   80  A    between atoms: _203  and  _204
REMARK   81  A    between atoms: _204  and  _205
REMARK   82  A    between atoms: _207  and  _209
REMARK   83  A    between atoms: _209  and  _210
REMARK   84  A    between atoms: _209  and  _212
REMARK   85  A    between atoms: _212  and  _213
REMARK   86  A    between atoms: _218  and  _219
REMARK   87  A    between atoms: _221  and  _223
REMARK   88  A    between atoms: _223  and  _224
REMARK   89  A    between atoms: _223  and  _226
REMARK   90  A    between atoms: _226  and  _227
REMARK   91  A    between atoms: _237  and  _239
REMARK   92  A    between atoms: _239  and  _240
REMARK   93  A    between atoms: _239  and  _242
REMARK   94  A    between atoms: _242  and  _243
REMARK   95  A    between atoms: _248  and  _250
REMARK   96  A    between atoms: _250  and  _251
REMARK   97  A    between atoms: _250  and  _253
REMARK   98  A    between atoms: _253  and  _254
REMARK                            x       y       z     vdW  Elec       q    Type
REMARK                         _______ _______ _______ _____ _____    ______ ____
ROOT
ATOM      1  CA  ALA A   1      44.447  33.461 -22.714  0.00  0.00    +0.133 C 
ATOM      2  CB  ALA A   1      44.725  33.712 -21.226  0.00  0.00    +0.027 C 
ENDROOT
BRANCH   1   3
ATOM      3  N   ALA A   1      44.749  34.663 -23.498  0.00  0.00    -0.239 NA
ATOM      4  H   ALA A   1      44.528  35.599 -23.103  0.00  0.00    +0.142 HD
ENDBRANCH   1   3
BRANCH   1   5
ATOM      5  C   ALA A   1      43.036  32.895 -22.902  0.00  0.00    +0.224 C 
ATOM      6  O   ALA A   1      42.824  31.698 -22.732  0.00  0.00    -0.287 OA
ENDBRANCH   1   5
TORSDOF 2
REMARK  Name = ../refined-set-2016/4trc/4trc_pocket.pdb
REMARK  98 active torsions:
REMARK  status: ('A' for Active; 'I' for Inactive)
REMARK    1  A    between atoms: _2  and  _3
REMARK    2  A    between atoms: _8  and  _10
REMARK    3  A    between atoms: _10  and  _11
REMARK    4  A    between atoms: _10  and  _13
REMARK    5  A    between atoms: _13  and  _14
REMARK    6  A    between atoms: _14  and  _15
REMARK    7  A    between atoms: _15  and  _16
REMARK    8  A    between atoms: _16  and  _17
REMARK    9  A    between atoms: _21  and  _23
REMARK   10  A    between atoms: _23  and  _24
REMARK   11  A    between atoms: _23  and  _26
REMARK   12  A    between atoms: _29  and  _31
REMARK   13  A    between atoms: _31  and  _32
REMARK   14  A    between atoms: _34  and  _36
REMARK   15  A    between atoms: _36  and  _37
REMARK   16  A    between atoms: _36  and  _39
REMARK   17  A    between atoms: _39  and  _40
REMARK   18  A    between atoms: _45  and  _47
REMARK   19  A    between atoms: _47  and  _48
REMARK   20  A    between atoms: _47  and  _50
REMARK   21  A    between atoms: _50  and  _51
REMARK   22  A    between atoms: _54  and  _56
REMARK   23  A    between atoms: _56  and  _57
REMARK   24  A    between atoms: _56  and  _59
REMARK   25  A    between atoms: _59  and  _60
REMARK   26  A    between atoms: _63  and  _65
REMARK   27  A    between atoms: _65  and  _66
REMARK   28  A    between atoms: _65  and  _68
REMARK   29  A    between atoms: _68  and  _69
REMARK   30  A    between atoms: _72  and  _74
REMARK   31  A    between atoms: _74  and  _75
REMARK   32  A    between atoms: _74  and  _77
REMARK   33  A    between atoms: _77  and  _78
REMARK   34  A    between atoms: _81  and  _83
REMARK   35  A    between atoms: _83  and  _84
REMARK   36  A    between atoms: _83  and  _86
REMARK   37  A    between atoms: _86  and  _87
REMARK   38  A    between atoms: _90  and  _92
REMARK   39  A    between atoms: _92  and  _93
REMARK   40  A    between atoms: _92  and  _95
REMARK   41  A    between atoms: _95  and  _96
REMARK   42  A    between atoms: _99  and  _101
REMARK   43  A    between atoms: _101  and  _102
REMARK   44  A    between atoms: _104  and  _106
REMARK   45  A    between atoms: _106  and  _107
REMARK   46  A    between atoms: _106  and  _109
REMARK   47  A    between atoms: _109  and  _110
REMARK   48  A    between atoms: _112  and  _114
REMARK   49  A    between atoms: _114  and  _115
REMARK   50  A    between atoms: _114  and  _117
REMARK   51  A    between atoms: _117  and  _118
REMARK   52  A    between atoms: _118  and  _119
REMARK   53  A    between atoms: _124  and  _126
REMARK   54  A    between atoms: _126  and  _127
REMARK   55  A    between atoms: _126  and  _129
REMARK   56  A    between atoms: _129  and  _130
REMARK   57  A    between atoms: _133  and  _135
REMARK   58  A    between atoms: _135  and  _136
REMARK   59  A    between atoms: _139  and  _141
REMARK   60  A    between atoms: _141  and  _142
REMARK   61  A    between atoms: _141  and  _144
REMARK   62  A    between atoms: _144  and  _145
REMARK   63  A    between atoms: _148  and  _150
REMARK   64  A    between atoms: _150  and  _151
REMARK   65  A    between atoms: _150  and  _153
REMARK   66  A    between atoms: _153  and  _154
REMARK   67  A    between atoms: _164  and  _166
REMARK   68  A    between atoms: _166  and  _167
REMARK   69  A    between atoms: _170  and  _172
REMARK   70  A    between atoms: _172  and  _173
REMARK   71  A    between atoms: _172  and  _175
REMARK   72  A    between atoms: _175  and  _176
REMARK   73  A    between atoms: _186  and  _188
REMARK   74  A    between atoms: _188  and  _189
REMARK   75  A    between atoms: _188  and  _191
REMARK   76  A    between atoms: _191  and  _192
REMARK   77  A    between atoms: _198  and  _200
REMARK   78  A    between atoms: _200  and  _201
REMARK   79  A    between atoms: _200  and  _203
REMARK   80  A    between atoms: _203  and  _204
REMARK   81  A    between atoms: _204  and  _205
REMARK   82  A    between atoms: _207  and  _209
REMARK   83  A    between atoms: _209  and  _210
REMARK   84  A    between atoms: _209  and  _212
REMARK   85  A    between atoms: _212  and  _213
REMARK   86  A    between atoms: _218  and  _219
REMARK   87  A    between atoms: _221  and  _223
REMARK   88  A    between atoms: _223  and  _224
REMARK   89  A    between atoms: _223  and  _226
REMARK   90  A    between atoms: _226  and  _227
REMARK   91  A    between atoms: _237  and  _239
REMARK   92  A    between atoms: _239  and  _240
REMARK   93  A    between atoms: _239  and  _242
REMARK   94  A    between atoms: _242  and  _243
REMARK   95  A    between atoms: _248  and  _250
REMARK   96  A    between atoms: _250  and  _251
REMARK   97  A    between atoms: _250  and  _253
REMARK   98  A    between atoms: _253  and  _254
REMARK                            x       y       z     vdW  Elec       q    Type
REMARK                         _______ _______ _______ _____ _____    ______ ____
ROOT
ATOM      1  CA  ILE A   1      44.383  42.766 -21.253  0.00  0.00    +0.133 C 
ENDROOT
BRANCH   1   2
ATOM      2  N   ILE A   1      42.995  42.972 -21.649  0.00  0.00    -0.239 NA
ATOM      3  H   ILE A   1      42.353  42.154 -21.646  0.00  0.00    +0.142 HD
ENDBRANCH   1   2
BRANCH   1   4
ATOM      4  CB  ILE A   1      44.456  42.001 -19.926  0.00  0.00    +0.023 C 
ATOM      5  CG2 ILE A   1      45.898  41.830 -19.497  0.00  0.00    +0.002 C 
BRANCH   4   6
ATOM      6  CG1 ILE A   1      43.661  42.744 -18.860  0.00  0.00    +0.002 C 
ATOM      7  CD1 ILE A   1      44.192  44.173 -18.589  0.00  0.00    +0.000 C 
ENDBRANCH   4   6
ENDBRANCH   1   4
BRANCH   1   8
ATOM      8  C   ILE A   1      45.070  41.950 -22.348  0.00  0.00    +0.224 C 
ATOM      9  O   ILE A   1      44.575  40.891 -22.747  0.00  0.00    -0.287 OA
ENDBRANCH   1   8
TORSDOF 4
REMARK  Name = ../refined-set-2016/4trc/4trc_pocket.pdb
REMARK  98 active torsions:
REMARK  status: ('A' for Active; 'I' for Inactive)
REMARK    1  A    between atoms: _2  and  _3
REMARK    2  A    between atoms: _8  and  _10
REMARK    3  A    between atoms: _10  and  _11
REMARK    4  A    between atoms: _10  and  _13
REMARK    5  A    between atoms: _13  and  _14
REMARK    6  A    between atoms: _14  and  _15
REMARK    7  A    between atoms: _15  and  _16
REMARK    8  A    between atoms: _16  and  _17
REMARK    9  A    between atoms: _21  and  _23
REMARK   10  A    between atoms: _23  and  _24
REMARK   11  A    between atoms: _23  and  _26
REMARK   12  A    between atoms: _29  and  _31
REMARK   13  A    between atoms: _31  and  _32
REMARK   14  A    between atoms: _34  and  _36
REMARK   15  A    between atoms: _36  and  _37
REMARK   16  A    between atoms: _36  and  _39
REMARK   17  A    between atoms: _39  and  _40
REMARK   18  A    between atoms: _45  and  _47
REMARK   19  A    between atoms: _47  and  _48
REMARK   20  A    between atoms: _47  and  _50
REMARK   21  A    between atoms: _50  and  _51
REMARK   22  A    between atoms: _54  and  _56
REMARK   23  A    between atoms: _56  and  _57
REMARK   24  A    between atoms: _56  and  _59
REMARK   25  A    between atoms: _59  and  _60
REMARK   26  A    between atoms: _63  and  _65
REMARK   27  A    between atoms: _65  and  _66
REMARK   28  A    between atoms: _65  and  _68
REMARK   29  A    between atoms: _68  and  _69
REMARK   30  A    between atoms: _72  and  _74
REMARK   31  A    between atoms: _74  and  _75
REMARK   32  A    between atoms: _74  and  _77
REMARK   33  A    between atoms: _77  and  _78
REMARK   34  A    between atoms: _81  and  _83
REMARK   35  A    between atoms: _83  and  _84
REMARK   36  A    between atoms: _83  and  _86
REMARK   37  A    between atoms: _86  and  _87
REMARK   38  A    between atoms: _90  and  _92
REMARK   39  A    between atoms: _92  and  _93
REMARK   40  A    between atoms: _92  and  _95
REMARK   41  A    between atoms: _95  and  _96
REMARK   42  A    between atoms: _99  and  _101
REMARK   43  A    between atoms: _101  and  _102
REMARK   44  A    between atoms: _104  and  _106
REMARK   45  A    between atoms: _106  and  _107
REMARK   46  A    between atoms: _106  and  _109
REMARK   47  A    between atoms: _109  and  _110
REMARK   48  A    between atoms: _112  and  _114
REMARK   49  A    between atoms: _114  and  _115
REMARK   50  A    between atoms: _114  and  _117
REMARK   51  A    between atoms: _117  and  _118
REMARK   52  A    between atoms: _118  and  _119
REMARK   53  A    between atoms: _124  and  _126
REMARK   54  A    between atoms: _126  and  _127
REMARK   55  A    between atoms: _126  and  _129
REMARK   56  A    between atoms: _129  and  _130
REMARK   57  A    between atoms: _133  and  _135
REMARK   58  A    between atoms: _135  and  _136
REMARK   59  A    between atoms: _139  and  _141
REMARK   60  A    between atoms: _141  and  _142
REMARK   61  A    between atoms: _141  and  _144
REMARK   62  A    between atoms: _144  and  _145
REMARK   63  A    between atoms: _148  and  _150
REMARK   64  A    between atoms: _150  and  _151
REMARK   65  A    between atoms: _150  and  _153
REMARK   66  A    between atoms: _153  and  _154
REMARK   67  A    between atoms: _164  and  _166
REMARK   68  A    between atoms: _166  and  _167
REMARK   69  A    between atoms: _170  and  _172
REMARK   70  A    between atoms: _172  and  _173
REMARK   71  A    between atoms: _172  and  _175
REMARK   72  A    between atoms: _175  and  _176
REMARK   73  A    between atoms: _186  and  _188
REMARK   74  A    between atoms: _188  and  _189
REMARK   75  A    between atoms: _188  and  _191
REMARK   76  A    between atoms: _191  and  _192
REMARK   77  A    between atoms: _198  and  _200
REMARK   78  A    between atoms: _200  and  _201
REMARK   79  A    between atoms: _200  and  _203
REMARK   80  A    between atoms: _203  and  _204
REMARK   81  A    between atoms: _204  and  _205
REMARK   82  A    between atoms: _207  and  _209
REMARK   83  A    between atoms: _209  and  _210
REMARK   84  A    between atoms: _209  and  _212
REMARK   85  A    between atoms: _212  and  _213
REMARK   86  A    between atoms: _218  and  _219
REMARK   87  A    between atoms: _221  and  _223
REMARK   88  A    between atoms: _223  and  _224
REMARK   89  A    between atoms: _223  and  _226
REMARK   90  A    between atoms: _226  and  _227
REMARK   91  A    between atoms: _237  and  _239
REMARK   92  A    between atoms: _239  and  _240
REMARK   93  A    between atoms: _239  and  _242
REMARK   94  A    between atoms: _242  and  _243
REMARK   95  A    between atoms: _248  and  _250
REMARK   96  A    between atoms: _250  and  _251
REMARK   97  A    between atoms: _250  and  _253
REMARK   98  A    between atoms: _253  and  _254
REMARK                            x       y       z     vdW  Elec       q    Type
REMARK                         _______ _______ _______ _____ _____    ______ ____
ROOT
ATOM      1  C   TRP A   3      47.358  39.574 -11.527  0.00  0.00    +0.241 C 
ATOM      2  O   TRP A   3      48.074  40.470 -11.085  0.00  0.00    -0.273 OA
ATOM      3  N   PHE A   4      46.044  39.679 -11.584  0.00  0.00    -0.297 N 
ATOM      4  H   PHE A   4      45.477  38.911 -11.997  0.00  0.00    +0.150 HD
ENDROOT
BRANCH   3   5
ATOM      5  CA  PHE A   4      45.389  40.875 -11.066  0.00  0.00    +0.153 C 
BRANCH   5   6
ATOM      6  C   PHE A   4      45.002  40.718  -9.618  0.00  0.00    +0.241 C 
ATOM      7  N   MET A   5      45.567  41.592  -8.807  0.00  0.00    -0.297 N 
ATOM      8  H   MET A   5      46.188  42.324  -9.207  0.00  0.00    +0.150 HD
ATOM      9  O   PHE A   4      44.252  39.826  -9.237  0.00  0.00    -0.273 OA
BRANCH   7  10
ATOM     10  CA  MET A   5      45.349  41.561  -7.384  0.00  0.00    +0.149 C 
BRANCH  10  11
ATOM     11  C   MET A   5      44.211  42.527  -7.033  0.00  0.00    +0.241 C 
ATOM     12  N   TYR A   6      43.019  41.979  -6.832  0.00  0.00    -0.298 N 
ATOM     13  H   TYR A   6      42.914  40.947  -6.901  0.00  0.00    +0.150 HD
ATOM     14  O   MET A   5      44.409  43.752  -6.950  0.00  0.00    -0.273 OA
BRANCH  12  15
ATOM     15  CA  TYR A   6      41.849  42.799  -6.515  0.00  0.00    +0.141 C 
BRANCH  15  16
ATOM     16  C   TYR A   6      41.794  43.171  -5.035  0.00  0.00    +0.227 C 
ATOM     17  O   TYR A   6      42.296  42.424  -4.196  0.00  0.00    -0.286 OA
ENDBRANCH  15  16
BRANCH  15  18
ATOM     18  CB  TYR A   6      40.554  42.099  -6.953  0.00  0.00    +0.054 C 
BRANCH  18  19
ATOM     19  CG  TYR A   6      40.538  41.797  -8.433  0.00  0.00    -0.020 A 
ATOM     20  CD2 TYR A   6      40.550  40.488  -8.890  0.00  0.00    -0.001 A 
ATOM     21  CE2 TYR A   6      40.550  40.207 -10.241  0.00  0.00    +0.036 A 
ATOM     22  CZ  TYR A   6      40.557  41.240 -11.154  0.00  0.00    +0.134 A 
ATOM     23  CE1 TYR A   6      40.557  42.553 -10.730  0.00  0.00    +0.036 A 
ATOM     24  CD1 TYR A   6      40.551  42.826  -9.376  0.00  0.00    -0.001 A 
BRANCH  22  25
ATOM     25  OH  TYR A   6      40.571  40.948 -12.494  0.00  0.00    -0.506 OA
ATOM     26  HH  TYR A   6      40.569  39.966 -12.617  0.00  0.00    +0.292 HD
ENDBRANCH  22  25
ENDBRANCH  18  19
ENDBRANCH  15  18
ENDBRANCH  12  15
ENDBRANCH  10  11
BRANCH  10  27
ATOM     27  CB  MET A   5      46.641  41.968  -6.695  0.00  0.00    +0.041 C 
BRANCH  27  28
ATOM     28  CG  MET A   5      46.809  41.447  -5.299  0.00  0.00    +0.060 C 
BRANCH  28  29
ATOM     29  SD  MET A   5      48.522  41.710  -4.740  0.00  0.00    -0.139 S 
ATOM     30  CE  MET A   5      48.111  42.286  -3.119  0.00  0.00    +0.069 C 
ENDBRANCH  28  29
ENDBRANCH  27  28
ENDBRANCH  10  27
ENDBRANCH   7  10
ENDBRANCH   5   6
BRANCH   5  31
ATOM     31  CB  PHE A   4      44.218  41.289 -11.945  0.00  0.00    +0.055 C 
BRANCH  31  32
ATOM     32  CG  PHE A   4      44.654  41.769 -13.289  0.00  0.00    -0.020 A 
ATOM     33  CD2 PHE A   4      44.904  43.117 -13.503  0.00  0.00    -0.004 A 
ATOM     34  CE2 PHE A   4      45.343  43.565 -14.735  0.00  0.00    -0.000 A 
ATOM     35  CZ  PHE A   4      45.547  42.655 -15.771  0.00  0.00    -0.000 A 
ATOM     36  CE1 PHE A   4      45.314  41.312 -15.565  0.00  0.00    -0.000 A 
ATOM     37  CD1 PHE A   4      44.882  40.869 -14.322  0.00  0.00    -0.004 A 
ENDBRANCH  31  32
ENDBRANCH   5  31
ENDBRANCH   3   5
BRANCH   1  38
ATOM     38  CA  TRP A   3      47.949  38.282 -12.065  0.00  0.00    +0.153 C 
BRANCH  38  40
ATOM     39  C   ALA A   2      48.404  38.645 -14.392  0.00  0.00    +0.241 C 
ATOM     40  N   TRP A   3      48.859  38.614 -13.148  0.00  0.00    -0.297 N 
ATOM     41  H   TRP A   3      49.858  38.825 -12.949  0.00  0.00    +0.150 HD
ATOM     42  O   ALA A   2      47.274  38.260 -14.701  0.00  0.00    -0.273 OA
BRANCH  39  43
ATOM     43  CA  ALA A   2      49.356  39.141 -15.445  0.00  0.00    +0.149 C 
ATOM     44  CB  ALA A   2      49.475  40.652 -15.388  0.00  0.00    +0.031 C 
BRANCH  43  46
ATOM     45  C   TRP A   1      49.605  38.549 -17.785  0.00  0.00    +0.239 C 
ATOM     46  N   ALA A   2      48.830  38.708 -16.723  0.00  0.00    -0.297 N 
ATOM     47  H   ALA A   2      47.812  38.516 -16.809  0.00  0.00    +0.150 HD
ATOM     48  O   TRP A   1      50.797  38.847 -17.794  0.00  0.00    -0.274 OA
BRANCH  45  49
ATOM     49  CA  TRP A   1      48.928  37.950 -19.011  0.00  0.00    +0.149 C 
BRANCH  49  50
ATOM     50  N   TRP A   1      49.285  38.610 -20.276  0.00  0.00    -0.238 NA
ATOM     51  H   TRP A   1      49.557  38.027 -21.093  0.00  0.00    +0.142 HD
ENDBRANCH  49  50
BRANCH  49  52
ATOM     52  CB  TRP A   1      49.254  36.455 -19.034  0.00  0.00    +0.054 C 
BRANCH  52  53
ATOM     53  CG  TRP A   1      48.571  35.702 -17.930  0.00  0.00    -0.002 A 
ATOM     54  CD2 TRP A   1      49.036  35.525 -16.583  0.00  0.00    +0.013 A 
ATOM     55  CE3 TRP A   1      50.182  35.926 -15.893  0.00  0.00    +0.001 A 
ATOM     56  CZ3 TRP A   1      50.325  35.561 -14.568  0.00  0.00    +0.000 A 
ATOM     57  CH2 TRP A   1      49.348  34.806 -13.914  0.00  0.00    +0.001 A 
ATOM     58  CZ2 TRP A   1      48.211  34.402 -14.562  0.00  0.00    +0.017 A 
ATOM     59  CE2 TRP A   1      48.066  34.776 -15.901  0.00  0.00    +0.056 A 
ATOM     60  NE1 TRP A   1      47.056  34.514 -16.786  0.00  0.00    -0.352 N 
ATOM     61  HE1 TRP A   1      46.194  33.972 -16.574  0.00  0.00    +0.166 HD
ATOM     62  CD1 TRP A   1      47.360  35.080 -17.997  0.00  0.00    +0.068 A 
ENDBRANCH  52  53
ENDBRANCH  49  52
ENDBRANCH  45  49
ENDBRANCH  43  46
ENDBRANCH  39  43
ENDBRANCH  38  40
BRANCH  38  63
ATOM     63  CB  TRP A   3      48.635  37.511 -10.944  0.00  0.00    +0.057 C 
BRANCH  63  64
ATOM     64  CG  TRP A   3      47.655  37.110  -9.909  0.00  0.00    -0.002 A 
ATOM     65  CD1 TRP A   3      47.443  37.712  -8.696  0.00  0.00    +0.068 A 
ATOM     66  NE1 TRP A   3      46.433  37.058  -8.014  0.00  0.00    -0.352 N 
ATOM     67  HE1 TRP A   3      46.079  37.310  -7.069  0.00  0.00    +0.166 HD
ATOM     68  CE2 TRP A   3      45.974  36.021  -8.788  0.00  0.00    +0.056 A 
ATOM     69  CZ2 TRP A   3      44.971  35.087  -8.534  0.00  0.00    +0.017 A 
ATOM     70  CH2 TRP A   3      44.719  34.151  -9.508  0.00  0.00    +0.001 A 
ATOM     71  CZ3 TRP A   3      45.446  34.128 -10.705  0.00  0.00    +0.000 A 
ATOM     72  CE3 TRP A   3      46.438  35.059 -10.960  0.00  0.00    +0.001 A 
ATOM     73  CD2 TRP A   3      46.713  36.030  -9.994  0.00  0.00    +0.013 A 
ENDBRANCH  63  64
ENDBRANCH  38  63
ENDBRANCH   1  38
TORSDOF 24
REMARK  Name = ../refined-set-2016/4trc/4trc_pocket.pdb
REMARK  98 active torsions:
REMARK  status: ('A' for Active; 'I' for Inactive)
REMARK    1  A    between atoms: _2  and  _3
REMARK    2  A    between atoms: _8  and  _10
REMARK    3  A    between atoms: _10  and  _11
REMARK    4  A    between atoms: _10  and  _13
REMARK    5  A    between atoms: _13  and  _14
REMARK    6  A    between atoms: _14  and  _15
REMARK    7  A    between atoms: _15  and  _16
REMARK    8  A    between atoms: _16  and  _17
REMARK    9  A    between atoms: _21  and  _23
REMARK   10  A    between atoms: _23  and  _24
REMARK   11  A    between atoms: _23  and  _26
REMARK   12  A    between atoms: _29  and  _31
REMARK   13  A    between atoms: _31  and  _32
REMARK   14  A    between atoms: _34  and  _36
REMARK   15  A    between atoms: _36  and  _37
REMARK   16  A    between atoms: _36  and  _39
REMARK   17  A    between atoms: _39  and  _40
REMARK   18  A    between atoms: _45  and  _47
REMARK   19  A    between atoms: _47  and  _48
REMARK   20  A    between atoms: _47  and  _50
REMARK   21  A    between atoms: _50  and  _51
REMARK   22  A    between atoms: _54  and  _56
REMARK   23  A    between atoms: _56  and  _57
REMARK   24  A    between atoms: _56  and  _59
REMARK   25  A    between atoms: _59  and  _60
REMARK   26  A    between atoms: _63  and  _65
REMARK   27  A    between atoms: _65  and  _66
REMARK   28  A    between atoms: _65  and  _68
REMARK   29  A    between atoms: _68  and  _69
REMARK   30  A    between atoms: _72  and  _74
REMARK   31  A    between atoms: _74  and  _75
REMARK   32  A    between atoms: _74  and  _77
REMARK   33  A    between atoms: _77  and  _78
REMARK   34  A    between atoms: _81  and  _83
REMARK   35  A    between atoms: _83  and  _84
REMARK   36  A    between atoms: _83  and  _86
REMARK   37  A    between atoms: _86  and  _87
REMARK   38  A    between atoms: _90  and  _92
REMARK   39  A    between atoms: _92  and  _93
REMARK   40  A    between atoms: _92  and  _95
REMARK   41  A    between atoms: _95  and  _96
REMARK   42  A    between atoms: _99  and  _101
REMARK   43  A    between atoms: _101  and  _102
REMARK   44  A    between atoms: _104  and  _106
REMARK   45  A    between atoms: _106  and  _107
REMARK   46  A    between atoms: _106  and  _109
REMARK   47  A    between atoms: _109  and  _110
REMARK   48  A    between atoms: _112  and  _114
REMARK   49  A    between atoms: _114  and  _115
REMARK   50  A    between atoms: _114  and  _117
REMARK   51  A    between atoms: _117  and  _118
REMARK   52  A    between atoms: _118  and  _119
REMARK   53  A    between atoms: _124  and  _126
REMARK   54  A    between atoms: _126  and  _127
REMARK   55  A    between atoms: _126  and  _129
REMARK   56  A    between atoms: _129  and  _130
REMARK   57  A    between atoms: _133  and  _135
REMARK   58  A    between atoms: _135  and  _136
REMARK   59  A    between atoms: _139  and  _141
REMARK   60  A    between atoms: _141  and  _142
REMARK   61  A    between atoms: _141  and  _144
REMARK   62  A    between atoms: _144  and  _145
REMARK   63  A    between atoms: _148  and  _150
REMARK   64  A    between atoms: _150  and  _151
REMARK   65  A    between atoms: _150  and  _153
REMARK   66  A    between atoms: _153  and  _154
REMARK   67  A    between atoms: _164  and  _166
REMARK   68  A    between atoms: _166  and  _167
REMARK   69  A    between atoms: _170  and  _172
REMARK   70  A    between atoms: _172  and  _173
REMARK   71  A    between atoms: _172  and  _175
REMARK   72  A    between atoms: _175  and  _176
REMARK   73  A    between atoms: _186  and  _188
REMARK   74  A    between atoms: _188  and  _189
REMARK   75  A    between atoms: _188  and  _191
REMARK   76  A    between atoms: _191  and  _192
REMARK   77  A    between atoms: _198  and  _200
REMARK   78  A    between atoms: _200  and  _201
REMARK   79  A    between atoms: _200  and  _203
REMARK   80  A    between atoms: _203  and  _204
REMARK   81  A    between atoms: _204  and  _205
REMARK   82  A    between atoms: _207  and  _209
REMARK   83  A    between atoms: _209  and  _210
REMARK   84  A    between atoms: _209  and  _212
REMARK   85  A    between atoms: _212  and  _213
REMARK   86  A    between atoms: _218  and  _219
REMARK   87  A    between atoms: _221  and  _223
REMARK   88  A    between atoms: _223  and  _224
REMARK   89  A    between atoms: _223  and  _226
REMARK   90  A    between atoms: _226  and  _227
REMARK   91  A    between atoms: _237  and  _239
REMARK   92  A    between atoms: _239  and  _240
REMARK   93  A    between atoms: _239  and  _242
REMARK   94  A    between atoms: _242  and  _243
REMARK   95  A    between atoms: _248  and  _250
REMARK   96  A    between atoms: _250  and  _251
REMARK   97  A    between atoms: _250  and  _253
REMARK   98  A    between atoms: _253  and  _254
REMARK                            x       y       z     vdW  Elec       q    Type
REMARK                         _______ _______ _______ _____ _____    ______ ____
ROOT
ATOM      1  CA  TRP A   1      38.855  42.094  -2.091  0.00  0.00    +0.149 C 
ENDROOT
BRANCH   1   2
ATOM      2  C   TRP A   1      39.632  40.790  -1.961  0.00  0.00    +0.239 C 
ATOM      3  O   TRP A   1      39.108  39.805  -1.462  0.00  0.00    -0.274 OA
ATOM      4  N   ASN A   2      40.891  40.802  -2.398  0.00  0.00    -0.298 N 
ATOM      5  H   ASN A   2      41.309  41.705  -2.700  0.00  0.00    +0.150 HD
BRANCH   4   6
ATOM      6  CA  ASN A   2      41.702  39.593  -2.467  0.00  0.00    +0.146 C 
BRANCH   6   7
ATOM      7  C   ASN A   2      43.105  39.821  -1.899  0.00  0.00    +0.227 C 
ATOM      8  O   ASN A   2      43.962  38.951  -1.988  0.00  0.00    -0.286 OA
ENDBRANCH   6   7
BRANCH   6   9
ATOM      9  CB  ASN A   2      41.814  39.169  -3.935  0.00  0.00    +0.112 C 
BRANCH   9  10
ATOM     10  CG  ASN A   2      41.445  37.718  -4.160  0.00  0.00    +0.222 C 
ATOM     11  ND2 ASN A   2      42.040  36.824  -3.387  0.00  0.00    -0.329 N 
ATOM     12 HD21 ASN A   2      42.720  37.133  -2.663  0.00  0.00    +0.145 HD
ATOM     13 HD22 ASN A   2      41.828  35.813  -3.503  0.00  0.00    +0.145 HD
ATOM     14  OD1 ASN A   2      40.639  37.409  -5.025  0.00  0.00    -0.275 OA
ENDBRANCH   9  10
ENDBRANCH   6   9
ENDBRANCH   4   6
ENDBRANCH   1   2
BRANCH   1  15
ATOM     15  N   TRP A   1      39.576  43.039  -2.944  0.00  0.00    -0.238 NA
ATOM     16  H   TRP A   1      39.449  43.005  -3.976  0.00  0.00    +0.142 HD
ENDBRANCH   1  15
BRANCH   1  17
ATOM     17  CB  TRP A   1      37.465  41.813  -2.647  0.00  0.00    +0.054 C 
BRANCH  17  18
ATOM     18  CG  TRP A   1      37.504  41.329  -4.052  0.00  0.00    -0.002 A 
ATOM     19  CD1 TRP A   1      37.840  40.087  -4.483  0.00  0.00    +0.068 A 
ATOM     20  NE1 TRP A   1      37.762  40.023  -5.852  0.00  0.00    -0.352 N 
ATOM     21  CE2 TRP A   1      37.381  41.244  -6.332  0.00  0.00    +0.056 A 
ATOM     22  CZ2 TRP A   1      37.175  41.669  -7.631  0.00  0.00    +0.017 A 
ATOM     23  CH2 TRP A   1      36.785  42.965  -7.817  0.00  0.00    +0.001 A 
ATOM     24  CZ3 TRP A   1      36.616  43.838  -6.742  0.00  0.00    +0.000 A 
ATOM     25  CE3 TRP A   1      36.819  43.422  -5.441  0.00  0.00    +0.001 A 
ATOM     26  HE1 TRP A   1      37.961  39.182  -6.430  0.00  0.00    +0.166 HD
ATOM     27  CD2 TRP A   1      37.207  42.094  -5.223  0.00  0.00    +0.013 A 
ENDBRANCH  17  18
ENDBRANCH   1  17
TORSDOF 8
REMARK  Name = ../refined-set-2016/4trc/4trc_pocket.pdb
REMARK  98 active torsions:
REMARK  status: ('A' for Active; 'I' for Inactive)
REMARK    1  A    between atoms: _2  and  _3
REMARK    2  A    between atoms: _8  and  _10
REMARK    3  A    between atoms: _10  and  _11
REMARK    4  A    between atoms: _10  and  _13
REMARK    5  A    between atoms: _13  and  _14
REMARK    6  A    between atoms: _14  and  _15
REMARK    7  A    between atoms: _15  and  _16
REMARK    8  A    between atoms: _16  and  _17
REMARK    9  A    between atoms: _21  and  _23
REMARK   10  A    between atoms: _23  and  _24
REMARK   11  A    between atoms: _23  and  _26
REMARK   12  A    between atoms: _29  and  _31
REMARK   13  A    between atoms: _31  and  _32
REMARK   14  A    between atoms: _34  and  _36
REMARK   15  A    between atoms: _36  and  _37
REMARK   16  A    between atoms: _36  and  _39
REMARK   17  A    between atoms: _39  and  _40
REMARK   18  A    between atoms: _45  and  _47
REMARK   19  A    between atoms: _47  and  _48
REMARK   20  A    between atoms: _47  and  _50
REMARK   21  A    between atoms: _50  and  _51
REMARK   22  A    between atoms: _54  and  _56
REMARK   23  A    between atoms: _56  and  _57
REMARK   24  A    between atoms: _56  and  _59
REMARK   25  A    between atoms: _59  and  _60
REMARK   26  A    between atoms: _63  and  _65
REMARK   27  A    between atoms: _65  and  _66
REMARK   28  A    between atoms: _65  and  _68
REMARK   29  A    between atoms: _68  and  _69
REMARK   30  A    between atoms: _72  and  _74
REMARK   31  A    between atoms: _74  and  _75
REMARK   32  A    between atoms: _74  and  _77
REMARK   33  A    between atoms: _77  and  _78
REMARK   34  A    between atoms: _81  and  _83
REMARK   35  A    between atoms: _83  and  _84
REMARK   36  A    between atoms: _83  and  _86
REMARK   37  A    between atoms: _86  and  _87
REMARK   38  A    between atoms: _90  and  _92
REMARK   39  A    between atoms: _92  and  _93
REMARK   40  A    between atoms: _92  and  _95
REMARK   41  A    between atoms: _95  and  _96
REMARK   42  A    between atoms: _99  and  _101
REMARK   43  A    between atoms: _101  and  _102
REMARK   44  A    between atoms: _104  and  _106
REMARK   45  A    between atoms: _106  and  _107
REMARK   46  A    between atoms: _106  and  _109
REMARK   47  A    between atoms: _109  and  _110
REMARK   48  A    between atoms: _112  and  _114
REMARK   49  A    between atoms: _114  and  _115
REMARK   50  A    between atoms: _114  and  _117
REMARK   51  A    between atoms: _117  and  _118
REMARK   52  A    between atoms: _118  and  _119
REMARK   53  A    between atoms: _124  and  _126
REMARK   54  A    between atoms: _126  and  _127
REMARK   55  A    between atoms: _126  and  _129
REMARK   56  A    between atoms: _129  and  _130
REMARK   57  A    between atoms: _133  and  _135
REMARK   58  A    between atoms: _135  and  _136
REMARK   59  A    between atoms: _139  and  _141
REMARK   60  A    between atoms: _141  and  _142
REMARK   61  A    between atoms: _141  and  _144
REMARK   62  A    between atoms: _144  and  _145
REMARK   63  A    between atoms: _148  and  _150
REMARK   64  A    between atoms: _150  and  _151
REMARK   65  A    between atoms: _150  and  _153
REMARK   66  A    between atoms: _153  and  _154
REMARK   67  A    between atoms: _164  and  _166
REMARK   68  A    between atoms: _166  and  _167
REMARK   69  A    between atoms: _170  and  _172
REMARK   70  A    between atoms: _172  and  _173
REMARK   71  A    between atoms: _172  and  _175
REMARK   72  A    between atoms: _175  and  _176
REMARK   73  A    between atoms: _186  and  _188
REMARK   74  A    between atoms: _188  and  _189
REMARK   75  A    between atoms: _188  and  _191
REMARK   76  A    between atoms: _191  and  _192
REMARK   77  A    between atoms: _198  and  _200
REMARK   78  A    between atoms: _200  and  _201
REMARK   79  A    between atoms: _200  and  _203
REMARK   80  A    between atoms: _203  and  _204
REMARK   81  A    between atoms: _204  and  _205
REMARK   82  A    between atoms: _207  and  _209
REMARK   83  A    between atoms: _209  and  _210
REMARK   84  A    between atoms: _209  and  _212
REMARK   85  A    between atoms: _212  and  _213
REMARK   86  A    between atoms: _218  and  _219
REMARK   87  A    between atoms: _221  and  _223
REMARK   88  A    between atoms: _223  and  _224
REMARK   89  A    between atoms: _223  and  _226
REMARK   90  A    between atoms: _226  and  _227
REMARK   91  A    between atoms: _237  and  _239
REMARK   92  A    between atoms: _239  and  _240
REMARK   93  A    between atoms: _239  and  _242
REMARK   94  A    between atoms: _242  and  _243
REMARK   95  A    between atoms: _248  and  _250
REMARK   96  A    between atoms: _250  and  _251
REMARK   97  A    between atoms: _250  and  _253
REMARK   98  A    between atoms: _253  and  _254
REMARK                            x       y       z     vdW  Elec       q    Type
REMARK                         _______ _______ _______ _____ _____    ______ ____
ROOT
ATOM      1  CA  ASP A   1      46.819  36.891  -2.826  0.00  0.00    +0.144 C 
ENDROOT
BRANCH   1   2
ATOM      2  N   ASP A   1      45.818  36.772  -1.783  0.00  0.00    -0.239 NA
ATOM      3  H   ASP A   1      45.062  37.483  -1.714  0.00  0.00    +0.142 HD
ENDBRANCH   1   2
BRANCH   1   4
ATOM      4  C   ASP A   1      48.218  37.073  -2.238  0.00  0.00    +0.225 C 
ATOM      5  O   ASP A   1      49.180  36.468  -2.692  0.00  0.00    -0.287 OA
ENDBRANCH   1   4
BRANCH   1   6
ATOM      6  CB  ASP A   1      46.489  38.069  -3.730  0.00  0.00    +0.139 C 
BRANCH   6   7
ATOM      7  CG  ASP A   1      45.541  37.699  -4.838  0.00  0.00    +0.367 C 
ATOM      8  OD2 ASP A   1      45.132  36.521  -4.906  0.00  0.00    -0.246 OA
ATOM      9  OD1 ASP A   1      45.216  38.587  -5.643  0.00  0.00    -0.246 OA
ENDBRANCH   6   7
ENDBRANCH   1   6
TORSDOF 4
REMARK  Name = ../refined-set-2016/4trc/4trc_pocket.pdb
REMARK  98 active torsions:
REMARK  status: ('A' for Active; 'I' for Inactive)
REMARK    1  A    between atoms: _2  and  _3
REMARK    2  A    between atoms: _8  and  _10
REMARK    3  A    between atoms: _10  and  _11
REMARK    4  A    between atoms: _10  and  _13
REMARK    5  A    between atoms: _13  and  _14
REMARK    6  A    between atoms: _14  and  _15
REMARK    7  A    between atoms: _15  and  _16
REMARK    8  A    between atoms: _16  and  _17
REMARK    9  A    between atoms: _21  and  _23
REMARK   10  A    between atoms: _23  and  _24
REMARK   11  A    between atoms: _23  and  _26
REMARK   12  A    between atoms: _29  and  _31
REMARK   13  A    between atoms: _31  and  _32
REMARK   14  A    between atoms: _34  and  _36
REMARK   15  A    between atoms: _36  and  _37
REMARK   16  A    between atoms: _36  and  _39
REMARK   17  A    between atoms: _39  and  _40
REMARK   18  A    between atoms: _45  and  _47
REMARK   19  A    between atoms: _47  and  _48
REMARK   20  A    between atoms: _47  and  _50
REMARK   21  A    between atoms: _50  and  _51
REMARK   22  A    between atoms: _54  and  _56
REMARK   23  A    between atoms: _56  and  _57
REMARK   24  A    between atoms: _56  and  _59
REMARK   25  A    between atoms: _59  and  _60
REMARK   26  A    between atoms: _63  and  _65
REMARK   27  A    between atoms: _65  and  _66
REMARK   28  A    between atoms: _65  and  _68
REMARK   29  A    between atoms: _68  and  _69
REMARK   30  A    between atoms: _72  and  _74
REMARK   31  A    between atoms: _74  and  _75
REMARK   32  A    between atoms: _74  and  _77
REMARK   33  A    between atoms: _77  and  _78
REMARK   34  A    between atoms: _81  and  _83
REMARK   35  A    between atoms: _83  and  _84
REMARK   36  A    between atoms: _83  and  _86
REMARK   37  A    between atoms: _86  and  _87
REMARK   38  A    between atoms: _90  and  _92
REMARK   39  A    between atoms: _92  and  _93
REMARK   40  A    between atoms: _92  and  _95
REMARK   41  A    between atoms: _95  and  _96
REMARK   42  A    between atoms: _99  and  _101
REMARK   43  A    between atoms: _101  and  _102
REMARK   44  A    between atoms: _104  and  _106
REMARK   45  A    between atoms: _106  and  _107
REMARK   46  A    between atoms: _106  and  _109
REMARK   47  A    between atoms: _109  and  _110
REMARK   48  A    between atoms: _112  and  _114
REMARK   49  A    between atoms: _114  and  _115
REMARK   50  A    between atoms: _114  and  _117
REMARK   51  A    between atoms: _117  and  _118
REMARK   52  A    between atoms: _118  and  _119
REMARK   53  A    between atoms: _124  and  _126
REMARK   54  A    between atoms: _126  and  _127
REMARK   55  A    between atoms: _126  and  _129
REMARK   56  A    between atoms: _129  and  _130
REMARK   57  A    between atoms: _133  and  _135
REMARK   58  A    between atoms: _135  and  _136
REMARK   59  A    between atoms: _139  and  _141
REMARK   60  A    between atoms: _141  and  _142
REMARK   61  A    between atoms: _141  and  _144
REMARK   62  A    between atoms: _144  and  _145
REMARK   63  A    between atoms: _148  and  _150
REMARK   64  A    between atoms: _150  and  _151
REMARK   65  A    between atoms: _150  and  _153
REMARK   66  A    between atoms: _153  and  _154
REMARK   67  A    between atoms: _164  and  _166
REMARK   68  A    between atoms: _166  and  _167
REMARK   69  A    between atoms: _170  and  _172
REMARK   70  A    between atoms: _172  and  _173
REMARK   71  A    between atoms: _172  and  _175
REMARK   72  A    between atoms: _175  and  _176
REMARK   73  A    between atoms: _186  and  _188
REMARK   74  A    between atoms: _188  and  _189
REMARK   75  A    between atoms: _188  and  _191
REMARK   76  A    between atoms: _191  and  _192
REMARK   77  A    between atoms: _198  and  _200
REMARK   78  A    between atoms: _200  and  _201
REMARK   79  A    between atoms: _200  and  _203
REMARK   80  A    between atoms: _203  and  _204
REMARK   81  A    between atoms: _204  and  _205
REMARK   82  A    between atoms: _207  and  _209
REMARK   83  A    between atoms: _209  and  _210
REMARK   84  A    between atoms: _209  and  _212
REMARK   85  A    between atoms: _212  and  _213
REMARK   86  A    between atoms: _218  and  _219
REMARK   87  A    between atoms: _221  and  _223
REMARK   88  A    between atoms: _223  and  _224
REMARK   89  A    between atoms: _223  and  _226
REMARK   90  A    between atoms: _226  and  _227
REMARK   91  A    between atoms: _237  and  _239
REMARK   92  A    between atoms: _239  and  _240
REMARK   93  A    between atoms: _239  and  _242
REMARK   94  A    between atoms: _242  and  _243
REMARK   95  A    between atoms: _248  and  _250
REMARK   96  A    between atoms: _250  and  _251
REMARK   97  A    between atoms: _250  and  _253
REMARK   98  A    between atoms: _253  and  _254
REMARK                            x       y       z     vdW  Elec       q    Type
REMARK                         _______ _______ _______ _____ _____    ______ ____
ROOT
ATOM      1  O   HOH     1      37.597  36.139  -5.519  0.00  0.00    +0.000 OA
ENDROOT
TORSDOF 0
REMARK  Name = ../refined-set-2016/4trc/4trc_pocket.pdb
REMARK  98 active torsions:
REMARK  status: ('A' for Active; 'I' for Inactive)
REMARK    1  A    between atoms: _2  and  _3
REMARK    2  A    between atoms: _8  and  _10
REMARK    3  A    between atoms: _10  and  _11
REMARK    4  A    between atoms: _10  and  _13
REMARK    5  A    between atoms: _13  and  _14
REMARK    6  A    between atoms: _14  and  _15
REMARK    7  A    between atoms: _15  and  _16
REMARK    8  A    between atoms: _16  and  _17
REMARK    9  A    between atoms: _21  and  _23
REMARK   10  A    between atoms: _23  and  _24
REMARK   11  A    between atoms: _23  and  _26
REMARK   12  A    between atoms: _29  and  _31
REMARK   13  A    between atoms: _31  and  _32
REMARK   14  A    between atoms: _34  and  _36
REMARK   15  A    between atoms: _36  and  _37
REMARK   16  A    between atoms: _36  and  _39
REMARK   17  A    between atoms: _39  and  _40
REMARK   18  A    between atoms: _45  and  _47
REMARK   19  A    between atoms: _47  and  _48
REMARK   20  A    between atoms: _47  and  _50
REMARK   21  A    between atoms: _50  and  _51
REMARK   22  A    between atoms: _54  and  _56
REMARK   23  A    between atoms: _56  and  _57
REMARK   24  A    between atoms: _56  and  _59
REMARK   25  A    between atoms: _59  and  _60
REMARK   26  A    between atoms: _63  and  _65
REMARK   27  A    between atoms: _65  and  _66
REMARK   28  A    between atoms: _65  and  _68
REMARK   29  A    between atoms: _68  and  _69
REMARK   30  A    between atoms: _72  and  _74
REMARK   31  A    between atoms: _74  and  _75
REMARK   32  A    between atoms: _74  and  _77
REMARK   33  A    between atoms: _77  and  _78
REMARK   34  A    between atoms: _81  and  _83
REMARK   35  A    between atoms: _83  and  _84
REMARK   36  A    between atoms: _83  and  _86
REMARK   37  A    between atoms: _86  and  _87
REMARK   38  A    between atoms: _90  and  _92
REMARK   39  A    between atoms: _92  and  _93
REMARK   40  A    between atoms: _92  and  _95
REMARK   41  A    between atoms: _95  and  _96
REMARK   42  A    between atoms: _99  and  _101
REMARK   43  A    between atoms: _101  and  _102
REMARK   44  A    between atoms: _104  and  _106
REMARK   45  A    between atoms: _106  and  _107
REMARK   46  A    between atoms: _106  and  _109
REMARK   47  A    between atoms: _109  and  _110
REMARK   48  A    between atoms: _112  and  _114
REMARK   49  A    between atoms: _114  and  _115
REMARK   50  A    between atoms: _114  and  _117
REMARK   51  A    between atoms: _117  and  _118
REMARK   52  A    between atoms: _118  and  _119
REMARK   53  A    between atoms: _124  and  _126
REMARK   54  A    between atoms: _126  and  _127
REMARK   55  A    between atoms: _126  and  _129
REMARK   56  A    between atoms: _129  and  _130
REMARK   57  A    between atoms: _133  and  _135
REMARK   58  A    between atoms: _135  and  _136
REMARK   59  A    between atoms: _139  and  _141
REMARK   60  A    between atoms: _141  and  _142
REMARK   61  A    between atoms: _141  and  _144
REMARK   62  A    between atoms: _144  and  _145
REMARK   63  A    between atoms: _148  and  _150
REMARK   64  A    between atoms: _150  and  _151
REMARK   65  A    between atoms: _150  and  _153
REMARK   66  A    between atoms: _153  and  _154
REMARK   67  A    between atoms: _164  and  _166
REMARK   68  A    between atoms: _166  and  _167
REMARK   69  A    between atoms: _170  and  _172
REMARK   70  A    between atoms: _172  and  _173
REMARK   71  A    between atoms: _172  and  _175
REMARK   72  A    between atoms: _175  and  _176
REMARK   73  A    between atoms: _186  and  _188
REMARK   74  A    between atoms: _188  and  _189
REMARK   75  A    between atoms: _188  and  _191
REMARK   76  A    between atoms: _191  and  _192
REMARK   77  A    between atoms: _198  and  _200
REMARK   78  A    between atoms: _200  and  _201
REMARK   79  A    between atoms: _200  and  _203
REMARK   80  A    between atoms: _203  and  _204
REMARK   81  A    between atoms: _204  and  _205
REMARK   82  A    between atoms: _207  and  _209
REMARK   83  A    between atoms: _209  and  _210
REMARK   84  A    between atoms: _209  and  _212
REMARK   85  A    between atoms: _212  and  _213
REMARK   86  A    between atoms: _218  and  _219
REMARK   87  A    between atoms: _221  and  _223
REMARK   88  A    between atoms: _223  and  _224
REMARK   89  A    between atoms: _223  and  _226
REMARK   90  A    between atoms: _226  and  _227
REMARK   91  A    between atoms: _237  and  _239
REMARK   92  A    between atoms: _239  and  _240
REMARK   93  A    between atoms: _239  and  _242
REMARK   94  A    between atoms: _242  and  _243
REMARK   95  A    between atoms: _248  and  _250
REMARK   96  A    between atoms: _250  and  _251
REMARK   97  A    between atoms: _250  and  _253
REMARK   98  A    between atoms: _253  and  _254
REMARK                            x       y       z     vdW  Elec       q    Type
REMARK                         _______ _______ _______ _____ _____    ______ ____
ROOT
ATOM      1  O   HOH     1      42.912  39.013  -6.942  0.00  0.00    +0.000 OA
ENDROOT
TORSDOF 0
REMARK  Name = ../refined-set-2016/4trc/4trc_pocket.pdb
REMARK  98 active torsions:
REMARK  status: ('A' for Active; 'I' for Inactive)
REMARK    1  A    between atoms: _2  and  _3
REMARK    2  A    between atoms: _8  and  _10
REMARK    3  A    between atoms: _10  and  _11
REMARK    4  A    between atoms: _10  and  _13
REMARK    5  A    between atoms: _13  and  _14
REMARK    6  A    between atoms: _14  and  _15
REMARK    7  A    between atoms: _15  and  _16
REMARK    8  A    between atoms: _16  and  _17
REMARK    9  A    between atoms: _21  and  _23
REMARK   10  A    between atoms: _23  and  _24
REMARK   11  A    between atoms: _23  and  _26
REMARK   12  A    between atoms: _29  and  _31
REMARK   13  A    between atoms: _31  and  _32
REMARK   14  A    between atoms: _34  and  _36
REMARK   15  A    between atoms: _36  and  _37
REMARK   16  A    between atoms: _36  and  _39
REMARK   17  A    between atoms: _39  and  _40
REMARK   18  A    between atoms: _45  and  _47
REMARK   19  A    between atoms: _47  and  _48
REMARK   20  A    between atoms: _47  and  _50
REMARK   21  A    between atoms: _50  and  _51
REMARK   22  A    between atoms: _54  and  _56
REMARK   23  A    between atoms: _56  and  _57
REMARK   24  A    between atoms: _56  and  _59
REMARK   25  A    between atoms: _59  and  _60
REMARK   26  A    between atoms: _63  and  _65
REMARK   27  A    between atoms: _65  and  _66
REMARK   28  A    between atoms: _65  and  _68
REMARK   29  A    between atoms: _68  and  _69
REMARK   30  A    between atoms: _72  and  _74
REMARK   31  A    between atoms: _74  and  _75
REMARK   32  A    between atoms: _74  and  _77
REMARK   33  A    between atoms: _77  and  _78
REMARK   34  A    between atoms: _81  and  _83
REMARK   35  A    between atoms: _83  and  _84
REMARK   36  A    between atoms: _83  and  _86
REMARK   37  A    between atoms: _86  and  _87
REMARK   38  A    between atoms: _90  and  _92
REMARK   39  A    between atoms: _92  and  _93
REMARK   40  A    between atoms: _92  and  _95
REMARK   41  A    between atoms: _95  and  _96
REMARK   42  A    between atoms: _99  and  _101
REMARK   43  A    between atoms: _101  and  _102
REMARK   44  A    between atoms: _104  and  _106
REMARK   45  A    between atoms: _106  and  _107
REMARK   46  A    between atoms: _106  and  _109
REMARK   47  A    between atoms: _109  and  _110
REMARK   48  A    between atoms: _112  and  _114
REMARK   49  A    between atoms: _114  and  _115
REMARK   50  A    between atoms: _114  and  _117
REMARK   51  A    between atoms: _117  and  _118
REMARK   52  A    between atoms: _118  and  _119
REMARK   53  A    between atoms: _124  and  _126
REMARK   54  A    between atoms: _126  and  _127
REMARK   55  A    between atoms: _126  and  _129
REMARK   56  A    between atoms: _129  and  _130
REMARK   57  A    between atoms: _133  and  _135
REMARK   58  A    between atoms: _135  and  _136
REMARK   59  A    between atoms: _139  and  _141
REMARK   60  A    between atoms: _141  and  _142
REMARK   61  A    between atoms: _141  and  _144
REMARK   62  A    between atoms: _144  and  _145
REMARK   63  A    between atoms: _148  and  _150
REMARK   64  A    between atoms: _150  and  _151
REMARK   65  A    between atoms: _150  and  _153
REMARK   66  A    between atoms: _153  and  _154
REMARK   67  A    between atoms: _164  and  _166
REMARK   68  A    between atoms: _166  and  _167
REMARK   69  A    between atoms: _170  and  _172
REMARK   70  A    between atoms: _172  and  _173
REMARK   71  A    between atoms: _172  and  _175
REMARK   72  A    between atoms: _175  and  _176
REMARK   73  A    between atoms: _186  and  _188
REMARK   74  A    between atoms: _188  and  _189
REMARK   75  A    between atoms: _188  and  _191
REMARK   76  A    between atoms: _191  and  _192
REMARK   77  A    between atoms: _198  and  _200
REMARK   78  A    between atoms: _200  and  _201
REMARK   79  A    between atoms: _200  and  _203
REMARK   80  A    between atoms: _203  and  _204
REMARK   81  A    between atoms: _204  and  _205
REMARK   82  A    between atoms: _207  and  _209
REMARK   83  A    between atoms: _209  and  _210
REMARK   84  A    between atoms: _209  and  _212
REMARK   85  A    between atoms: _212  and  _213
REMARK   86  A    between atoms: _218  and  _219
REMARK   87  A    between atoms: _221  and  _223
REMARK   88  A    between atoms: _223  and  _224
REMARK   89  A    between atoms: _223  and  _226
REMARK   90  A    between atoms: _226  and  _227
REMARK   91  A    between atoms: _237  and  _239
REMARK   92  A    between atoms: _239  and  _240
REMARK   93  A    between atoms: _239  and  _242
REMARK   94  A    between atoms: _242  and  _243
REMARK   95  A    between atoms: _248  and  _250
REMARK   96  A    between atoms: _250  and  _251
REMARK   97  A    between atoms: _250  and  _253
REMARK   98  A    between atoms: _253  and  _254
REMARK                            x       y       z     vdW  Elec       q    Type
REMARK                         _______ _______ _______ _____ _____    ______ ____
ROOT
ATOM      1  O   HOH     1      35.878  32.512 -17.028  0.00  0.00    +0.000 OA
ENDROOT
TORSDOF 0
REMARK  Name = ../refined-set-2016/4trc/4trc_pocket.pdb
REMARK  98 active torsions:
REMARK  status: ('A' for Active; 'I' for Inactive)
REMARK    1  A    between atoms: _2  and  _3
REMARK    2  A    between atoms: _8  and  _10
REMARK    3  A    between atoms: _10  and  _11
REMARK    4  A    between atoms: _10  and  _13
REMARK    5  A    between atoms: _13  and  _14
REMARK    6  A    between atoms: _14  and  _15
REMARK    7  A    between atoms: _15  and  _16
REMARK    8  A    between atoms: _16  and  _17
REMARK    9  A    between atoms: _21  and  _23
REMARK   10  A    between atoms: _23  and  _24
REMARK   11  A    between atoms: _23  and  _26
REMARK   12  A    between atoms: _29  and  _31
REMARK   13  A    between atoms: _31  and  _32
REMARK   14  A    between atoms: _34  and  _36
REMARK   15  A    between atoms: _36  and  _37
REMARK   16  A    between atoms: _36  and  _39
REMARK   17  A    between atoms: _39  and  _40
REMARK   18  A    between atoms: _45  and  _47
REMARK   19  A    between atoms: _47  and  _48
REMARK   20  A    between atoms: _47  and  _50
REMARK   21  A    between atoms: _50  and  _51
REMARK   22  A    between atoms: _54  and  _56
REMARK   23  A    between atoms: _56  and  _57
REMARK   24  A    between atoms: _56  and  _59
REMARK   25  A    between atoms: _59  and  _60
REMARK   26  A    between atoms: _63  and  _65
REMARK   27  A    between atoms: _65  and  _66
REMARK   28  A    between atoms: _65  and  _68
REMARK   29  A    between atoms: _68  and  _69
REMARK   30  A    between atoms: _72  and  _74
REMARK   31  A    between atoms: _74  and  _75
REMARK   32  A    between atoms: _74  and  _77
REMARK   33  A    between atoms: _77  and  _78
REMARK   34  A    between atoms: _81  and  _83
REMARK   35  A    between atoms: _83  and  _84
REMARK   36  A    between atoms: _83  and  _86
REMARK   37  A    between atoms: _86  and  _87
REMARK   38  A    between atoms: _90  and  _92
REMARK   39  A    between atoms: _92  and  _93
REMARK   40  A    between atoms: _92  and  _95
REMARK   41  A    between atoms: _95  and  _96
REMARK   42  A    between atoms: _99  and  _101
REMARK   43  A    between atoms: _101  and  _102
REMARK   44  A    between atoms: _104  and  _106
REMARK   45  A    between atoms: _106  and  _107
REMARK   46  A    between atoms: _106  and  _109
REMARK   47  A    between atoms: _109  and  _110
REMARK   48  A    between atoms: _112  and  _114
REMARK   49  A    between atoms: _114  and  _115
REMARK   50  A    between atoms: _114  and  _117
REMARK   51  A    between atoms: _117  and  _118
REMARK   52  A    between atoms: _118  and  _119
REMARK   53  A    between atoms: _124  and  _126
REMARK   54  A    between atoms: _126  and  _127
REMARK   55  A    between atoms: _126  and  _129
REMARK   56  A    between atoms: _129  and  _130
REMARK   57  A    between atoms: _133  and  _135
REMARK   58  A    between atoms: _135  and  _136
REMARK   59  A    between atoms: _139  and  _141
REMARK   60  A    between atoms: _141  and  _142
REMARK   61  A    between atoms: _141  and  _144
REMARK   62  A    between atoms: _144  and  _145
REMARK   63  A    between atoms: _148  and  _150
REMARK   64  A    between atoms: _150  and  _151
REMARK   65  A    between atoms: _150  and  _153
REMARK   66  A    between atoms: _153  and  _154
REMARK   67  A    between atoms: _164  and  _166
REMARK   68  A    between atoms: _166  and  _167
REMARK   69  A    between atoms: _170  and  _172
REMARK   70  A    between atoms: _172  and  _173
REMARK   71  A    between atoms: _172  and  _175
REMARK   72  A    between atoms: _175  and  _176
REMARK   73  A    between atoms: _186  and  _188
REMARK   74  A    between atoms: _188  and  _189
REMARK   75  A    between atoms: _188  and  _191
REMARK   76  A    between atoms: _191  and  _192
REMARK   77  A    between atoms: _198  and  _200
REMARK   78  A    between atoms: _200  and  _201
REMARK   79  A    between atoms: _200  and  _203
REMARK   80  A    between atoms: _203  and  _204
REMARK   81  A    between atoms: _204  and  _205
REMARK   82  A    between atoms: _207  and  _209
REMARK   83  A    between atoms: _209  and  _210
REMARK   84  A    between atoms: _209  and  _212
REMARK   85  A    between atoms: _212  and  _213
REMARK   86  A    between atoms: _218  and  _219
REMARK   87  A    between atoms: _221  and  _223
REMARK   88  A    between atoms: _223  and  _224
REMARK   89  A    between atoms: _223  and  _226
REMARK   90  A    between atoms: _226  and  _227
REMARK   91  A    between atoms: _237  and  _239
REMARK   92  A    between atoms: _239  and  _240
REMARK   93  A    between atoms: _239  and  _242
REMARK   94  A    between atoms: _242  and  _243
REMARK   95  A    between atoms: _248  and  _250
REMARK   96  A    between atoms: _250  and  _251
REMARK   97  A    between atoms: _250  and  _253
REMARK   98  A    between atoms: _253  and  _254
REMARK                            x       y       z     vdW  Elec       q    Type
REMARK                         _______ _______ _______ _____ _____    ______ ____
ROOT
ATOM      1  O   HOH     1      38.897  37.710  -7.244  0.00  0.00    +0.000 OA
ENDROOT
TORSDOF 0
REMARK  Name = ../refined-set-2016/4trc/4trc_pocket.pdb
REMARK  98 active torsions:
REMARK  status: ('A' for Active; 'I' for Inactive)
REMARK    1  A    between atoms: _2  and  _3
REMARK    2  A    between atoms: _8  and  _10
REMARK    3  A    between atoms: _10  and  _11
REMARK    4  A    between atoms: _10  and  _13
REMARK    5  A    between atoms: _13  and  _14
REMARK    6  A    between atoms: _14  and  _15
REMARK    7  A    between atoms: _15  and  _16
REMARK    8  A    between atoms: _16  and  _17
REMARK    9  A    between atoms: _21  and  _23
REMARK   10  A    between atoms: _23  and  _24
REMARK   11  A    between atoms: _23  and  _26
REMARK   12  A    between atoms: _29  and  _31
REMARK   13  A    between atoms: _31  and  _32
REMARK   14  A    between atoms: _34  and  _36
REMARK   15  A    between atoms: _36  and  _37
REMARK   16  A    between atoms: _36  and  _39
REMARK   17  A    between atoms: _39  and  _40
REMARK   18  A    between atoms: _45  and  _47
REMARK   19  A    between atoms: _47  and  _48
REMARK   20  A    between atoms: _47  and  _50
REMARK   21  A    between atoms: _50  and  _51
REMARK   22  A    between atoms: _54  and  _56
REMARK   23  A    between atoms: _56  and  _57
REMARK   24  A    between atoms: _56  and  _59
REMARK   25  A    between atoms: _59  and  _60
REMARK   26  A    between atoms: _63  and  _65
REMARK   27  A    between atoms: _65  and  _66
REMARK   28  A    between atoms: _65  and  _68
REMARK   29  A    between atoms: _68  and  _69
REMARK   30  A    between atoms: _72  and  _74
REMARK   31  A    between atoms: _74  and  _75
REMARK   32  A    between atoms: _74  and  _77
REMARK   33  A    between atoms: _77  and  _78
REMARK   34  A    between atoms: _81  and  _83
REMARK   35  A    between atoms: _83  and  _84
REMARK   36  A    between atoms: _83  and  _86
REMARK   37  A    between atoms: _86  and  _87
REMARK   38  A    between atoms: _90  and  _92
REMARK   39  A    between atoms: _92  and  _93
REMARK   40  A    between atoms: _92  and  _95
REMARK   41  A    between atoms: _95  and  _96
REMARK   42  A    between atoms: _99  and  _101
REMARK   43  A    between atoms: _101  and  _102
REMARK   44  A    between atoms: _104  and  _106
REMARK   45  A    between atoms: _106  and  _107
REMARK   46  A    between atoms: _106  and  _109
REMARK   47  A    between atoms: _109  and  _110
REMARK   48  A    between atoms: _112  and  _114
REMARK   49  A    between atoms: _114  and  _115
REMARK   50  A    between atoms: _114  and  _117
REMARK   51  A    between atoms: _117  and  _118
REMARK   52  A    between atoms: _118  and  _119
REMARK   53  A    between atoms: _124  and  _126
REMARK   54  A    between atoms: _126  and  _127
REMARK   55  A    between atoms: _126  and  _129
REMARK   56  A    between atoms: _129  and  _130
REMARK   57  A    between atoms: _133  and  _135
REMARK   58  A    between atoms: _135  and  _136
REMARK   59  A    between atoms: _139  and  _141
REMARK   60  A    between atoms: _141  and  _142
REMARK   61  A    between atoms: _141  and  _144
REMARK   62  A    between atoms: _144  and  _145
REMARK   63  A    between atoms: _148  and  _150
REMARK   64  A    between atoms: _150  and  _151
REMARK   65  A    between atoms: _150  and  _153
REMARK   66  A    between atoms: _153  and  _154
REMARK   67  A    between atoms: _164  and  _166
REMARK   68  A    between atoms: _166  and  _167
REMARK   69  A    between atoms: _170  and  _172
REMARK   70  A    between atoms: _172  and  _173
REMARK   71  A    between atoms: _172  and  _175
REMARK   72  A    between atoms: _175  and  _176
REMARK   73  A    between atoms: _186  and  _188
REMARK   74  A    between atoms: _188  and  _189
REMARK   75  A    between atoms: _188  and  _191
REMARK   76  A    between atoms: _191  and  _192
REMARK   77  A    between atoms: _198  and  _200
REMARK   78  A    between atoms: _200  and  _201
REMARK   79  A    between atoms: _200  and  _203
REMARK   80  A    between atoms: _203  and  _204
REMARK   81  A    between atoms: _204  and  _205
REMARK   82  A    between atoms: _207  and  _209
REMARK   83  A    between atoms: _209  and  _210
REMARK   84  A    between atoms: _209  and  _212
REMARK   85  A    between atoms: _212  and  _213
REMARK   86  A    between atoms: _218  and  _219
REMARK   87  A    between atoms: _221  and  _223
REMARK   88  A    between atoms: _223  and  _224
REMARK   89  A    between atoms: _223  and  _226
REMARK   90  A    between atoms: _226  and  _227
REMARK   91  A    between atoms: _237  and  _239
REMARK   92  A    between atoms: _239  and  _240
REMARK   93  A    between atoms: _239  and  _242
REMARK   94  A    between atoms: _242  and  _243
REMARK   95  A    between atoms: _248  and  _250
REMARK   96  A    between atoms: _250  and  _251
REMARK   97  A    between atoms: _250  and  _253
REMARK   98  A    between atoms: _253  and  _254
REMARK                            x       y       z     vdW  Elec       q    Type
REMARK                         _______ _______ _______ _____ _____    ______ ____
ROOT
ATOM      1  O   HOH     1      35.076  31.364  -8.798  0.00  0.00    +0.000 OA
ENDROOT
TORSDOF 0
REMARK  Name = ../refined-set-2016/4trc/4trc_pocket.pdb
REMARK  98 active torsions:
REMARK  status: ('A' for Active; 'I' for Inactive)
REMARK    1  A    between atoms: _2  and  _3
REMARK    2  A    between atoms: _8  and  _10
REMARK    3  A    between atoms: _10  and  _11
REMARK    4  A    between atoms: _10  and  _13
REMARK    5  A    between atoms: _13  and  _14
REMARK    6  A    between atoms: _14  and  _15
REMARK    7  A    between atoms: _15  and  _16
REMARK    8  A    between atoms: _16  and  _17
REMARK    9  A    between atoms: _21  and  _23
REMARK   10  A    between atoms: _23  and  _24
REMARK   11  A    between atoms: _23  and  _26
REMARK   12  A    between atoms: _29  and  _31
REMARK   13  A    between atoms: _31  and  _32
REMARK   14  A    between atoms: _34  and  _36
REMARK   15  A    between atoms: _36  and  _37
REMARK   16  A    between atoms: _36  and  _39
REMARK   17  A    between atoms: _39  and  _40
REMARK   18  A    between atoms: _45  and  _47
REMARK   19  A    between atoms: _47  and  _48
REMARK   20  A    between atoms: _47  and  _50
REMARK   21  A    between atoms: _50  and  _51
REMARK   22  A    between atoms: _54  and  _56
REMARK   23  A    between atoms: _56  and  _57
REMARK   24  A    between atoms: _56  and  _59
REMARK   25  A    between atoms: _59  and  _60
REMARK   26  A    between atoms: _63  and  _65
REMARK   27  A    between atoms: _65  and  _66
REMARK   28  A    between atoms: _65  and  _68
REMARK   29  A    between atoms: _68  and  _69
REMARK   30  A    between atoms: _72  and  _74
REMARK   31  A    between atoms: _74  and  _75
REMARK   32  A    between atoms: _74  and  _77
REMARK   33  A    between atoms: _77  and  _78
REMARK   34  A    between atoms: _81  and  _83
REMARK   35  A    between atoms: _83  and  _84
REMARK   36  A    between atoms: _83  and  _86
REMARK   37  A    between atoms: _86  and  _87
REMARK   38  A    between atoms: _90  and  _92
REMARK   39  A    between atoms: _92  and  _93
REMARK   40  A    between atoms: _92  and  _95
REMARK   41  A    between atoms: _95  and  _96
REMARK   42  A    between atoms: _99  and  _101
REMARK   43  A    between atoms: _101  and  _102
REMARK   44  A    between atoms: _104  and  _106
REMARK   45  A    between atoms: _106  and  _107
REMARK   46  A    between atoms: _106  and  _109
REMARK   47  A    between atoms: _109  and  _110
REMARK   48  A    between atoms: _112  and  _114
REMARK   49  A    between atoms: _114  and  _115
REMARK   50  A    between atoms: _114  and  _117
REMARK   51  A    between atoms: _117  and  _118
REMARK   52  A    between atoms: _118  and  _119
REMARK   53  A    between atoms: _124  and  _126
REMARK   54  A    between atoms: _126  and  _127
REMARK   55  A    between atoms: _126  and  _129
REMARK   56  A    between atoms: _129  and  _130
REMARK   57  A    between atoms: _133  and  _135
REMARK   58  A    between atoms: _135  and  _136
REMARK   59  A    between atoms: _139  and  _141
REMARK   60  A    between atoms: _141  and  _142
REMARK   61  A    between atoms: _141  and  _144
REMARK   62  A    between atoms: _144  and  _145
REMARK   63  A    between atoms: _148  and  _150
REMARK   64  A    between atoms: _150  and  _151
REMARK   65  A    between atoms: _150  and  _153
REMARK   66  A    between atoms: _153  and  _154
REMARK   67  A    between atoms: _164  and  _166
REMARK   68  A    between atoms: _166  and  _167
REMARK   69  A    between atoms: _170  and  _172
REMARK   70  A    between atoms: _172  and  _173
REMARK   71  A    between atoms: _172  and  _175
REMARK   72  A    between atoms: _175  and  _176
REMARK   73  A    between atoms: _186  and  _188
REMARK   74  A    between atoms: _188  and  _189
REMARK   75  A    between atoms: _188  and  _191
REMARK   76  A    between atoms: _191  and  _192
REMARK   77  A    between atoms: _198  and  _200
REMARK   78  A    between atoms: _200  and  _201
REMARK   79  A    between atoms: _200  and  _203
REMARK   80  A    between atoms: _203  and  _204
REMARK   81  A    between atoms: _204  and  _205
REMARK   82  A    between atoms: _207  and  _209
REMARK   83  A    between atoms: _209  and  _210
REMARK   84  A    between atoms: _209  and  _212
REMARK   85  A    between atoms: _212  and  _213
REMARK   86  A    between atoms: _218  and  _219
REMARK   87  A    between atoms: _221  and  _223
REMARK   88  A    between atoms: _223  and  _224
REMARK   89  A    between atoms: _223  and  _226
REMARK   90  A    between atoms: _226  and  _227
REMARK   91  A    between atoms: _237  and  _239
REMARK   92  A    between atoms: _239  and  _240
REMARK   93  A    between atoms: _239  and  _242
REMARK   94  A    between atoms: _242  and  _243
REMARK   95  A    between atoms: _248  and  _250
REMARK   96  A    between atoms: _250  and  _251
REMARK   97  A    between atoms: _250  and  _253
REMARK   98  A    between atoms: _253  and  _254
REMARK                            x       y       z     vdW  Elec       q    Type
REMARK                         _______ _______ _______ _____ _____    ______ ____
ROOT
ATOM      1  O   HOH     1      41.733  36.812  -7.926  0.00  0.00    +0.000 OA
ENDROOT
TORSDOF 0
REMARK  Name = ../refined-set-2016/4trc/4trc_pocket.pdb
REMARK  98 active torsions:
REMARK  status: ('A' for Active; 'I' for Inactive)
REMARK    1  A    between atoms: _2  and  _3
REMARK    2  A    between atoms: _8  and  _10
REMARK    3  A    between atoms: _10  and  _11
REMARK    4  A    between atoms: _10  and  _13
REMARK    5  A    between atoms: _13  and  _14
REMARK    6  A    between atoms: _14  and  _15
REMARK    7  A    between atoms: _15  and  _16
REMARK    8  A    between atoms: _16  and  _17
REMARK    9  A    between atoms: _21  and  _23
REMARK   10  A    between atoms: _23  and  _24
REMARK   11  A    between atoms: _23  and  _26
REMARK   12  A    between atoms: _29  and  _31
REMARK   13  A    between atoms: _31  and  _32
REMARK   14  A    between atoms: _34  and  _36
REMARK   15  A    between atoms: _36  and  _37
REMARK   16  A    between atoms: _36  and  _39
REMARK   17  A    between atoms: _39  and  _40
REMARK   18  A    between atoms: _45  and  _47
REMARK   19  A    between atoms: _47  and  _48
REMARK   20  A    between atoms: _47  and  _50
REMARK   21  A    between atoms: _50  and  _51
REMARK   22  A    between atoms: _54  and  _56
REMARK   23  A    between atoms: _56  and  _57
REMARK   24  A    between atoms: _56  and  _59
REMARK   25  A    between atoms: _59  and  _60
REMARK   26  A    between atoms: _63  and  _65
REMARK   27  A    between atoms: _65  and  _66
REMARK   28  A    between atoms: _65  and  _68
REMARK   29  A    between atoms: _68  and  _69
REMARK   30  A    between atoms: _72  and  _74
REMARK   31  A    between atoms: _74  and  _75
REMARK   32  A    between atoms: _74  and  _77
REMARK   33  A    between atoms: _77  and  _78
REMARK   34  A    between atoms: _81  and  _83
REMARK   35  A    between atoms: _83  and  _84
REMARK   36  A    between atoms: _83  and  _86
REMARK   37  A    between atoms: _86  and  _87
REMARK   38  A    between atoms: _90  and  _92
REMARK   39  A    between atoms: _92  and  _93
REMARK   40  A    between atoms: _92  and  _95
REMARK   41  A    between atoms: _95  and  _96
REMARK   42  A    between atoms: _99  and  _101
REMARK   43  A    between atoms: _101  and  _102
REMARK   44  A    between atoms: _104  and  _106
REMARK   45  A    between atoms: _106  and  _107
REMARK   46  A    between atoms: _106  and  _109
REMARK   47  A    between atoms: _109  and  _110
REMARK   48  A    between atoms: _112  and  _114
REMARK   49  A    between atoms: _114  and  _115
REMARK   50  A    between atoms: _114  and  _117
REMARK   51  A    between atoms: _117  and  _118
REMARK   52  A    between atoms: _118  and  _119
REMARK   53  A    between atoms: _124  and  _126
REMARK   54  A    between atoms: _126  and  _127
REMARK   55  A    between atoms: _126  and  _129
REMARK   56  A    between atoms: _129  and  _130
REMARK   57  A    between atoms: _133  and  _135
REMARK   58  A    between atoms: _135  and  _136
REMARK   59  A    between atoms: _139  and  _141
REMARK   60  A    between atoms: _141  and  _142
REMARK   61  A    between atoms: _141  and  _144
REMARK   62  A    between atoms: _144  and  _145
REMARK   63  A    between atoms: _148  and  _150
REMARK   64  A    between atoms: _150  and  _151
REMARK   65  A    between atoms: _150  and  _153
REMARK   66  A    between atoms: _153  and  _154
REMARK   67  A    between atoms: _164  and  _166
REMARK   68  A    between atoms: _166  and  _167
REMARK   69  A    between atoms: _170  and  _172
REMARK   70  A    between atoms: _172  and  _173
REMARK   71  A    between atoms: _172  and  _175
REMARK   72  A    between atoms: _175  and  _176
REMARK   73  A    between atoms: _186  and  _188
REMARK   74  A    between atoms: _188  and  _189
REMARK   75  A    between atoms: _188  and  _191
REMARK   76  A    between atoms: _191  and  _192
REMARK   77  A    between atoms: _198  and  _200
REMARK   78  A    between atoms: _200  and  _201
REMARK   79  A    between atoms: _200  and  _203
REMARK   80  A    between atoms: _203  and  _204
REMARK   81  A    between atoms: _204  and  _205
REMARK   82  A    between atoms: _207  and  _209
REMARK   83  A    between atoms: _209  and  _210
REMARK   84  A    between atoms: _209  and  _212
REMARK   85  A    between atoms: _212  and  _213
REMARK   86  A    between atoms: _218  and  _219
REMARK   87  A    between atoms: _221  and  _223
REMARK   88  A    between atoms: _223  and  _224
REMARK   89  A    between atoms: _223  and  _226
REMARK   90  A    between atoms: _226  and  _227
REMARK   91  A    between atoms: _237  and  _239
REMARK   92  A    between atoms: _239  and  _240
REMARK   93  A    between atoms: _239  and  _242
REMARK   94  A    between atoms: _242  and  _243
REMARK   95  A    between atoms: _248  and  _250
REMARK   96  A    between atoms: _250  and  _251
REMARK   97  A    between atoms: _250  and  _253
REMARK   98  A    between atoms: _253  and  _254
REMARK                            x       y       z     vdW  Elec       q    Type
REMARK                         _______ _______ _______ _____ _____    ______ ____
ROOT
ATOM      1  O   HOH     1      45.684  33.931  -4.546  0.00  0.00    +0.000 OA
ENDROOT
TORSDOF 0
REMARK  Name = ../refined-set-2016/4trc/4trc_pocket.pdb
REMARK  98 active torsions:
REMARK  status: ('A' for Active; 'I' for Inactive)
REMARK    1  A    between atoms: _2  and  _3
REMARK    2  A    between atoms: _8  and  _10
REMARK    3  A    between atoms: _10  and  _11
REMARK    4  A    between atoms: _10  and  _13
REMARK    5  A    between atoms: _13  and  _14
REMARK    6  A    between atoms: _14  and  _15
REMARK    7  A    between atoms: _15  and  _16
REMARK    8  A    between atoms: _16  and  _17
REMARK    9  A    between atoms: _21  and  _23
REMARK   10  A    between atoms: _23  and  _24
REMARK   11  A    between atoms: _23  and  _26
REMARK   12  A    between atoms: _29  and  _31
REMARK   13  A    between atoms: _31  and  _32
REMARK   14  A    between atoms: _34  and  _36
REMARK   15  A    between atoms: _36  and  _37
REMARK   16  A    between atoms: _36  and  _39
REMARK   17  A    between atoms: _39  and  _40
REMARK   18  A    between atoms: _45  and  _47
REMARK   19  A    between atoms: _47  and  _48
REMARK   20  A    between atoms: _47  and  _50
REMARK   21  A    between atoms: _50  and  _51
REMARK   22  A    between atoms: _54  and  _56
REMARK   23  A    between atoms: _56  and  _57
REMARK   24  A    between atoms: _56  and  _59
REMARK   25  A    between atoms: _59  and  _60
REMARK   26  A    between atoms: _63  and  _65
REMARK   27  A    between atoms: _65  and  _66
REMARK   28  A    between atoms: _65  and  _68
REMARK   29  A    between atoms: _68  and  _69
REMARK   30  A    between atoms: _72  and  _74
REMARK   31  A    between atoms: _74  and  _75
REMARK   32  A    between atoms: _74  and  _77
REMARK   33  A    between atoms: _77  and  _78
REMARK   34  A    between atoms: _81  and  _83
REMARK   35  A    between atoms: _83  and  _84
REMARK   36  A    between atoms: _83  and  _86
REMARK   37  A    between atoms: _86  and  _87
REMARK   38  A    between atoms: _90  and  _92
REMARK   39  A    between atoms: _92  and  _93
REMARK   40  A    between atoms: _92  and  _95
REMARK   41  A    between atoms: _95  and  _96
REMARK   42  A    between atoms: _99  and  _101
REMARK   43  A    between atoms: _101  and  _102
REMARK   44  A    between atoms: _104  and  _106
REMARK   45  A    between atoms: _106  and  _107
REMARK   46  A    between atoms: _106  and  _109
REMARK   47  A    between atoms: _109  and  _110
REMARK   48  A    between atoms: _112  and  _114
REMARK   49  A    between atoms: _114  and  _115
REMARK   50  A    between atoms: _114  and  _117
REMARK   51  A    between atoms: _117  and  _118
REMARK   52  A    between atoms: _118  and  _119
REMARK   53  A    between atoms: _124  and  _126
REMARK   54  A    between atoms: _126  and  _127
REMARK   55  A    between atoms: _126  and  _129
REMARK   56  A    between atoms: _129  and  _130
REMARK   57  A    between atoms: _133  and  _135
REMARK   58  A    between atoms: _135  and  _136
REMARK   59  A    between atoms: _139  and  _141
REMARK   60  A    between atoms: _141  and  _142
REMARK   61  A    between atoms: _141  and  _144
REMARK   62  A    between atoms: _144  and  _145
REMARK   63  A    between atoms: _148  and  _150
REMARK   64  A    between atoms: _150  and  _151
REMARK   65  A    between atoms: _150  and  _153
REMARK   66  A    between atoms: _153  and  _154
REMARK   67  A    between atoms: _164  and  _166
REMARK   68  A    between atoms: _166  and  _167
REMARK   69  A    between atoms: _170  and  _172
REMARK   70  A    between atoms: _172  and  _173
REMARK   71  A    between atoms: _172  and  _175
REMARK   72  A    between atoms: _175  and  _176
REMARK   73  A    between atoms: _186  and  _188
REMARK   74  A    between atoms: _188  and  _189
REMARK   75  A    between atoms: _188  and  _191
REMARK   76  A    between atoms: _191  and  _192
REMARK   77  A    between atoms: _198  and  _200
REMARK   78  A    between atoms: _200  and  _201
REMARK   79  A    between atoms: _200  and  _203
REMARK   80  A    between atoms: _203  and  _204
REMARK   81  A    between atoms: _204  and  _205
REMARK   82  A    between atoms: _207  and  _209
REMARK   83  A    between atoms: _209  and  _210
REMARK   84  A    between atoms: _209  and  _212
REMARK   85  A    between atoms: _212  and  _213
REMARK   86  A    between atoms: _218  and  _219
REMARK   87  A    between atoms: _221  and  _223
REMARK   88  A    between atoms: _223  and  _224
REMARK   89  A    between atoms: _223  and  _226
REMARK   90  A    between atoms: _226  and  _227
REMARK   91  A    between atoms: _237  and  _239
REMARK   92  A    between atoms: _239  and  _240
REMARK   93  A    between atoms: _239  and  _242
REMARK   94  A    between atoms: _242  and  _243
REMARK   95  A    between atoms: _248  and  _250
REMARK   96  A    between atoms: _250  and  _251
REMARK   97  A    between atoms: _250  and  _253
REMARK   98  A    between atoms: _253  and  _254
REMARK                            x       y       z     vdW  Elec       q    Type
REMARK                         _______ _______ _______ _____ _____    ______ ____
ROOT
ATOM      1  O   HOH     1      35.667  34.229  -9.574  0.00  0.00    +0.000 OA
ENDROOT
TORSDOF 0
REMARK  Name = ../refined-set-2016/4trc/4trc_pocket.pdb
REMARK  98 active torsions:
REMARK  status: ('A' for Active; 'I' for Inactive)
REMARK    1  A    between atoms: _2  and  _3
REMARK    2  A    between atoms: _8  and  _10
REMARK    3  A    between atoms: _10  and  _11
REMARK    4  A    between atoms: _10  and  _13
REMARK    5  A    between atoms: _13  and  _14
REMARK    6  A    between atoms: _14  and  _15
REMARK    7  A    between atoms: _15  and  _16
REMARK    8  A    between atoms: _16  and  _17
REMARK    9  A    between atoms: _21  and  _23
REMARK   10  A    between atoms: _23  and  _24
REMARK   11  A    between atoms: _23  and  _26
REMARK   12  A    between atoms: _29  and  _31
REMARK   13  A    between atoms: _31  and  _32
REMARK   14  A    between atoms: _34  and  _36
REMARK   15  A    between atoms: _36  and  _37
REMARK   16  A    between atoms: _36  and  _39
REMARK   17  A    between atoms: _39  and  _40
REMARK   18  A    between atoms: _45  and  _47
REMARK   19  A    between atoms: _47  and  _48
REMARK   20  A    between atoms: _47  and  _50
REMARK   21  A    between atoms: _50  and  _51
REMARK   22  A    between atoms: _54  and  _56
REMARK   23  A    between atoms: _56  and  _57
REMARK   24  A    between atoms: _56  and  _59
REMARK   25  A    between atoms: _59  and  _60
REMARK   26  A    between atoms: _63  and  _65
REMARK   27  A    between atoms: _65  and  _66
REMARK   28  A    between atoms: _65  and  _68
REMARK   29  A    between atoms: _68  and  _69
REMARK   30  A    between atoms: _72  and  _74
REMARK   31  A    between atoms: _74  and  _75
REMARK   32  A    between atoms: _74  and  _77
REMARK   33  A    between atoms: _77  and  _78
REMARK   34  A    between atoms: _81  and  _83
REMARK   35  A    between atoms: _83  and  _84
REMARK   36  A    between atoms: _83  and  _86
REMARK   37  A    between atoms: _86  and  _87
REMARK   38  A    between atoms: _90  and  _92
REMARK   39  A    between atoms: _92  and  _93
REMARK   40  A    between atoms: _92  and  _95
REMARK   41  A    between atoms: _95  and  _96
REMARK   42  A    between atoms: _99  and  _101
REMARK   43  A    between atoms: _101  and  _102
REMARK   44  A    between atoms: _104  and  _106
REMARK   45  A    between atoms: _106  and  _107
REMARK   46  A    between atoms: _106  and  _109
REMARK   47  A    between atoms: _109  and  _110
REMARK   48  A    between atoms: _112  and  _114
REMARK   49  A    between atoms: _114  and  _115
REMARK   50  A    between atoms: _114  and  _117
REMARK   51  A    between atoms: _117  and  _118
REMARK   52  A    between atoms: _118  and  _119
REMARK   53  A    between atoms: _124  and  _126
REMARK   54  A    between atoms: _126  and  _127
REMARK   55  A    between atoms: _126  and  _129
REMARK   56  A    between atoms: _129  and  _130
REMARK   57  A    between atoms: _133  and  _135
REMARK   58  A    between atoms: _135  and  _136
REMARK   59  A    between atoms: _139  and  _141
REMARK   60  A    between atoms: _141  and  _142
REMARK   61  A    between atoms: _141  and  _144
REMARK   62  A    between atoms: _144  and  _145
REMARK   63  A    between atoms: _148  and  _150
REMARK   64  A    between atoms: _150  and  _151
REMARK   65  A    between atoms: _150  and  _153
REMARK   66  A    between atoms: _153  and  _154
REMARK   67  A    between atoms: _164  and  _166
REMARK   68  A    between atoms: _166  and  _167
REMARK   69  A    between atoms: _170  and  _172
REMARK   70  A    between atoms: _172  and  _173
REMARK   71  A    between atoms: _172  and  _175
REMARK   72  A    between atoms: _175  and  _176
REMARK   73  A    between atoms: _186  and  _188
REMARK   74  A    between atoms: _188  and  _189
REMARK   75  A    between atoms: _188  and  _191
REMARK   76  A    between atoms: _191  and  _192
REMARK   77  A    between atoms: _198  and  _200
REMARK   78  A    between atoms: _200  and  _201
REMARK   79  A    between atoms: _200  and  _203
REMARK   80  A    between atoms: _203  and  _204
REMARK   81  A    between atoms: _204  and  _205
REMARK   82  A    between atoms: _207  and  _209
REMARK   83  A    between atoms: _209  and  _210
REMARK   84  A    between atoms: _209  and  _212
REMARK   85  A    between atoms: _212  and  _213
REMARK   86  A    between atoms: _218  and  _219
REMARK   87  A    between atoms: _221  and  _223
REMARK   88  A    between atoms: _223  and  _224
REMARK   89  A    between atoms: _223  and  _226
REMARK   90  A    between atoms: _226  and  _227
REMARK   91  A    between atoms: _237  and  _239
REMARK   92  A    between atoms: _239  and  _240
REMARK   93  A    between atoms: _239  and  _242
REMARK   94  A    between atoms: _242  and  _243
REMARK   95  A    between atoms: _248  and  _250
REMARK   96  A    between atoms: _250  and  _251
REMARK   97  A    between atoms: _250  and  _253
REMARK   98  A    between atoms: _253  and  _254
REMARK                            x       y       z     vdW  Elec       q    Type
REMARK                         _______ _______ _______ _____ _____    ______ ____
ROOT
ATOM      1  O   HOH     1      39.435  31.279 -11.959  0.00  0.00    +0.000 OA
ENDROOT
TORSDOF 0
REMARK  Name = ../refined-set-2016/4trc/4trc_pocket.pdb
REMARK  98 active torsions:
REMARK  status: ('A' for Active; 'I' for Inactive)
REMARK    1  A    between atoms: _2  and  _3
REMARK    2  A    between atoms: _8  and  _10
REMARK    3  A    between atoms: _10  and  _11
REMARK    4  A    between atoms: _10  and  _13
REMARK    5  A    between atoms: _13  and  _14
REMARK    6  A    between atoms: _14  and  _15
REMARK    7  A    between atoms: _15  and  _16
REMARK    8  A    between atoms: _16  and  _17
REMARK    9  A    between atoms: _21  and  _23
REMARK   10  A    between atoms: _23  and  _24
REMARK   11  A    between atoms: _23  and  _26
REMARK   12  A    between atoms: _29  and  _31
REMARK   13  A    between atoms: _31  and  _32
REMARK   14  A    between atoms: _34  and  _36
REMARK   15  A    between atoms: _36  and  _37
REMARK   16  A    between atoms: _36  and  _39
REMARK   17  A    between atoms: _39  and  _40
REMARK   18  A    between atoms: _45  and  _47
REMARK   19  A    between atoms: _47  and  _48
REMARK   20  A    between atoms: _47  and  _50
REMARK   21  A    between atoms: _50  and  _51
REMARK   22  A    between atoms: _54  and  _56
REMARK   23  A    between atoms: _56  and  _57
REMARK   24  A    between atoms: _56  and  _59
REMARK   25  A    between atoms: _59  and  _60
REMARK   26  A    between atoms: _63  and  _65
REMARK   27  A    between atoms: _65  and  _66
REMARK   28  A    between atoms: _65  and  _68
REMARK   29  A    between atoms: _68  and  _69
REMARK   30  A    between atoms: _72  and  _74
REMARK   31  A    between atoms: _74  and  _75
REMARK   32  A    between atoms: _74  and  _77
REMARK   33  A    between atoms: _77  and  _78
REMARK   34  A    between atoms: _81  and  _83
REMARK   35  A    between atoms: _83  and  _84
REMARK   36  A    between atoms: _83  and  _86
REMARK   37  A    between atoms: _86  and  _87
REMARK   38  A    between atoms: _90  and  _92
REMARK   39  A    between atoms: _92  and  _93
REMARK   40  A    between atoms: _92  and  _95
REMARK   41  A    between atoms: _95  and  _96
REMARK   42  A    between atoms: _99  and  _101
REMARK   43  A    between atoms: _101  and  _102
REMARK   44  A    between atoms: _104  and  _106
REMARK   45  A    between atoms: _106  and  _107
REMARK   46  A    between atoms: _106  and  _109
REMARK   47  A    between atoms: _109  and  _110
REMARK   48  A    between atoms: _112  and  _114
REMARK   49  A    between atoms: _114  and  _115
REMARK   50  A    between atoms: _114  and  _117
REMARK   51  A    between atoms: _117  and  _118
REMARK   52  A    between atoms: _118  and  _119
REMARK   53  A    between atoms: _124  and  _126
REMARK   54  A    between atoms: _126  and  _127
REMARK   55  A    between atoms: _126  and  _129
REMARK   56  A    between atoms: _129  and  _130
REMARK   57  A    between atoms: _133  and  _135
REMARK   58  A    between atoms: _135  and  _136
REMARK   59  A    between atoms: _139  and  _141
REMARK   60  A    between atoms: _141  and  _142
REMARK   61  A    between atoms: _141  and  _144
REMARK   62  A    between atoms: _144  and  _145
REMARK   63  A    between atoms: _148  and  _150
REMARK   64  A    between atoms: _150  and  _151
REMARK   65  A    between atoms: _150  and  _153
REMARK   66  A    between atoms: _153  and  _154
REMARK   67  A    between atoms: _164  and  _166
REMARK   68  A    between atoms: _166  and  _167
REMARK   69  A    between atoms: _170  and  _172
REMARK   70  A    between atoms: _172  and  _173
REMARK   71  A    between atoms: _172  and  _175
REMARK   72  A    between atoms: _175  and  _176
REMARK   73  A    between atoms: _186  and  _188
REMARK   74  A    between atoms: _188  and  _189
REMARK   75  A    between atoms: _188  and  _191
REMARK   76  A    between atoms: _191  and  _192
REMARK   77  A    between atoms: _198  and  _200
REMARK   78  A    between atoms: _200  and  _201
REMARK   79  A    between atoms: _200  and  _203
REMARK   80  A    between atoms: _203  and  _204
REMARK   81  A    between atoms: _204  and  _205
REMARK   82  A    between atoms: _207  and  _209
REMARK   83  A    between atoms: _209  and  _210
REMARK   84  A    between atoms: _209  and  _212
REMARK   85  A    between atoms: _212  and  _213
REMARK   86  A    between atoms: _218  and  _219
REMARK   87  A    between atoms: _221  and  _223
REMARK   88  A    between atoms: _223  and  _224
REMARK   89  A    between atoms: _223  and  _226
REMARK   90  A    between atoms: _226  and  _227
REMARK   91  A    between atoms: _237  and  _239
REMARK   92  A    between atoms: _239  and  _240
REMARK   93  A    between atoms: _239  and  _242
REMARK   94  A    between atoms: _242  and  _243
REMARK   95  A    between atoms: _248  and  _250
REMARK   96  A    between atoms: _250  and  _251
REMARK   97  A    between atoms: _250  and  _253
REMARK   98  A    between atoms: _253  and  _254
REMARK                            x       y       z     vdW  Elec       q    Type
REMARK                         _______ _______ _______ _____ _____    ______ ____
ROOT
ATOM      1  O   HOH     1      38.635  34.924  -9.434  0.00  0.00    +0.000 OA
ENDROOT
TORSDOF 0
REMARK  Name = ../refined-set-2016/4trc/4trc_pocket.pdb
REMARK  98 active torsions:
REMARK  status: ('A' for Active; 'I' for Inactive)
REMARK    1  A    between atoms: _2  and  _3
REMARK    2  A    between atoms: _8  and  _10
REMARK    3  A    between atoms: _10  and  _11
REMARK    4  A    between atoms: _10  and  _13
REMARK    5  A    between atoms: _13  and  _14
REMARK    6  A    between atoms: _14  and  _15
REMARK    7  A    between atoms: _15  and  _16
REMARK    8  A    between atoms: _16  and  _17
REMARK    9  A    between atoms: _21  and  _23
REMARK   10  A    between atoms: _23  and  _24
REMARK   11  A    between atoms: _23  and  _26
REMARK   12  A    between atoms: _29  and  _31
REMARK   13  A    between atoms: _31  and  _32
REMARK   14  A    between atoms: _34  and  _36
REMARK   15  A    between atoms: _36  and  _37
REMARK   16  A    between atoms: _36  and  _39
REMARK   17  A    between atoms: _39  and  _40
REMARK   18  A    between atoms: _45  and  _47
REMARK   19  A    between atoms: _47  and  _48
REMARK   20  A    between atoms: _47  and  _50
REMARK   21  A    between atoms: _50  and  _51
REMARK   22  A    between atoms: _54  and  _56
REMARK   23  A    between atoms: _56  and  _57
REMARK   24  A    between atoms: _56  and  _59
REMARK   25  A    between atoms: _59  and  _60
REMARK   26  A    between atoms: _63  and  _65
REMARK   27  A    between atoms: _65  and  _66
REMARK   28  A    between atoms: _65  and  _68
REMARK   29  A    between atoms: _68  and  _69
REMARK   30  A    between atoms: _72  and  _74
REMARK   31  A    between atoms: _74  and  _75
REMARK   32  A    between atoms: _74  and  _77
REMARK   33  A    between atoms: _77  and  _78
REMARK   34  A    between atoms: _81  and  _83
REMARK   35  A    between atoms: _83  and  _84
REMARK   36  A    between atoms: _83  and  _86
REMARK   37  A    between atoms: _86  and  _87
REMARK   38  A    between atoms: _90  and  _92
REMARK   39  A    between atoms: _92  and  _93
REMARK   40  A    between atoms: _92  and  _95
REMARK   41  A    between atoms: _95  and  _96
REMARK   42  A    between atoms: _99  and  _101
REMARK   43  A    between atoms: _101  and  _102
REMARK   44  A    between atoms: _104  and  _106
REMARK   45  A    between atoms: _106  and  _107
REMARK   46  A    between atoms: _106  and  _109
REMARK   47  A    between atoms: _109  and  _110
REMARK   48  A    between atoms: _112  and  _114
REMARK   49  A    between atoms: _114  and  _115
REMARK   50  A    between atoms: _114  and  _117
REMARK   51  A    between atoms: _117  and  _118
REMARK   52  A    between atoms: _118  and  _119
REMARK   53  A    between atoms: _124  and  _126
REMARK   54  A    between atoms: _126  and  _127
REMARK   55  A    between atoms: _126  and  _129
REMARK   56  A    between atoms: _129  and  _130
REMARK   57  A    between atoms: _133  and  _135
REMARK   58  A    between atoms: _135  and  _136
REMARK   59  A    between atoms: _139  and  _141
REMARK   60  A    between atoms: _141  and  _142
REMARK   61  A    between atoms: _141  and  _144
REMARK   62  A    between atoms: _144  and  _145
REMARK   63  A    between atoms: _148  and  _150
REMARK   64  A    between atoms: _150  and  _151
REMARK   65  A    between atoms: _150  and  _153
REMARK   66  A    between atoms: _153  and  _154
REMARK   67  A    between atoms: _164  and  _166
REMARK   68  A    between atoms: _166  and  _167
REMARK   69  A    between atoms: _170  and  _172
REMARK   70  A    between atoms: _172  and  _173
REMARK   71  A    between atoms: _172  and  _175
REMARK   72  A    between atoms: _175  and  _176
REMARK   73  A    between atoms: _186  and  _188
REMARK   74  A    between atoms: _188  and  _189
REMARK   75  A    between atoms: _188  and  _191
REMARK   76  A    between atoms: _191  and  _192
REMARK   77  A    between atoms: _198  and  _200
REMARK   78  A    between atoms: _200  and  _201
REMARK   79  A    between atoms: _200  and  _203
REMARK   80  A    between atoms: _203  and  _204
REMARK   81  A    between atoms: _204  and  _205
REMARK   82  A    between atoms: _207  and  _209
REMARK   83  A    between atoms: _209  and  _210
REMARK   84  A    between atoms: _209  and  _212
REMARK   85  A    between atoms: _212  and  _213
REMARK   86  A    between atoms: _218  and  _219
REMARK   87  A    between atoms: _221  and  _223
REMARK   88  A    between atoms: _223  and  _224
REMARK   89  A    between atoms: _223  and  _226
REMARK   90  A    between atoms: _226  and  _227
REMARK   91  A    between atoms: _237  and  _239
REMARK   92  A    between atoms: _239  and  _240
REMARK   93  A    between atoms: _239  and  _242
REMARK   94  A    between atoms: _242  and  _243
REMARK   95  A    between atoms: _248  and  _250
REMARK   96  A    between atoms: _250  and  _251
REMARK   97  A    between atoms: _250  and  _253
REMARK   98  A    between atoms: _253  and  _254
REMARK                            x       y       z     vdW  Elec       q    Type
REMARK                         _______ _______ _______ _____ _____    ______ ____
ROOT
ATOM      1  O   HOH     1      35.415  34.754 -15.484  0.00  0.00    +0.000 OA
ENDROOT
TORSDOF 0
REMARK  Name = ../refined-set-2016/4trc/4trc_pocket.pdb
REMARK  98 active torsions:
REMARK  status: ('A' for Active; 'I' for Inactive)
REMARK    1  A    between atoms: _2  and  _3
REMARK    2  A    between atoms: _8  and  _10
REMARK    3  A    between atoms: _10  and  _11
REMARK    4  A    between atoms: _10  and  _13
REMARK    5  A    between atoms: _13  and  _14
REMARK    6  A    between atoms: _14  and  _15
REMARK    7  A    between atoms: _15  and  _16
REMARK    8  A    between atoms: _16  and  _17
REMARK    9  A    between atoms: _21  and  _23
REMARK   10  A    between atoms: _23  and  _24
REMARK   11  A    between atoms: _23  and  _26
REMARK   12  A    between atoms: _29  and  _31
REMARK   13  A    between atoms: _31  and  _32
REMARK   14  A    between atoms: _34  and  _36
REMARK   15  A    between atoms: _36  and  _37
REMARK   16  A    between atoms: _36  and  _39
REMARK   17  A    between atoms: _39  and  _40
REMARK   18  A    between atoms: _45  and  _47
REMARK   19  A    between atoms: _47  and  _48
REMARK   20  A    between atoms: _47  and  _50
REMARK   21  A    between atoms: _50  and  _51
REMARK   22  A    between atoms: _54  and  _56
REMARK   23  A    between atoms: _56  and  _57
REMARK   24  A    between atoms: _56  and  _59
REMARK   25  A    between atoms: _59  and  _60
REMARK   26  A    between atoms: _63  and  _65
REMARK   27  A    between atoms: _65  and  _66
REMARK   28  A    between atoms: _65  and  _68
REMARK   29  A    between atoms: _68  and  _69
REMARK   30  A    between atoms: _72  and  _74
REMARK   31  A    between atoms: _74  and  _75
REMARK   32  A    between atoms: _74  and  _77
REMARK   33  A    between atoms: _77  and  _78
REMARK   34  A    between atoms: _81  and  _83
REMARK   35  A    between atoms: _83  and  _84
REMARK   36  A    between atoms: _83  and  _86
REMARK   37  A    between atoms: _86  and  _87
REMARK   38  A    between atoms: _90  and  _92
REMARK   39  A    between atoms: _92  and  _93
REMARK   40  A    between atoms: _92  and  _95
REMARK   41  A    between atoms: _95  and  _96
REMARK   42  A    between atoms: _99  and  _101
REMARK   43  A    between atoms: _101  and  _102
REMARK   44  A    between atoms: _104  and  _106
REMARK   45  A    between atoms: _106  and  _107
REMARK   46  A    between atoms: _106  and  _109
REMARK   47  A    between atoms: _109  and  _110
REMARK   48  A    between atoms: _112  and  _114
REMARK   49  A    between atoms: _114  and  _115
REMARK   50  A    between atoms: _114  and  _117
REMARK   51  A    between atoms: _117  and  _118
REMARK   52  A    between atoms: _118  and  _119
REMARK   53  A    between atoms: _124  and  _126
REMARK   54  A    between atoms: _126  and  _127
REMARK   55  A    between atoms: _126  and  _129
REMARK   56  A    between atoms: _129  and  _130
REMARK   57  A    between atoms: _133  and  _135
REMARK   58  A    between atoms: _135  and  _136
REMARK   59  A    between atoms: _139  and  _141
REMARK   60  A    between atoms: _141  and  _142
REMARK   61  A    between atoms: _141  and  _144
REMARK   62  A    between atoms: _144  and  _145
REMARK   63  A    between atoms: _148  and  _150
REMARK   64  A    between atoms: _150  and  _151
REMARK   65  A    between atoms: _150  and  _153
REMARK   66  A    between atoms: _153  and  _154
REMARK   67  A    between atoms: _164  and  _166
REMARK   68  A    between atoms: _166  and  _167
REMARK   69  A    between atoms: _170  and  _172
REMARK   70  A    between atoms: _172  and  _173
REMARK   71  A    between atoms: _172  and  _175
REMARK   72  A    between atoms: _175  and  _176
REMARK   73  A    between atoms: _186  and  _188
REMARK   74  A    between atoms: _188  and  _189
REMARK   75  A    between atoms: _188  and  _191
REMARK   76  A    between atoms: _191  and  _192
REMARK   77  A    between atoms: _198  and  _200
REMARK   78  A    between atoms: _200  and  _201
REMARK   79  A    between atoms: _200  and  _203
REMARK   80  A    between atoms: _203  and  _204
REMARK   81  A    between atoms: _204  and  _205
REMARK   82  A    between atoms: _207  and  _209
REMARK   83  A    between atoms: _209  and  _210
REMARK   84  A    between atoms: _209  and  _212
REMARK   85  A    between atoms: _212  and  _213
REMARK   86  A    between atoms: _218  and  _219
REMARK   87  A    between atoms: _221  and  _223
REMARK   88  A    between atoms: _223  and  _224
REMARK   89  A    between atoms: _223  and  _226
REMARK   90  A    between atoms: _226  and  _227
REMARK   91  A    between atoms: _237  and  _239
REMARK   92  A    between atoms: _239  and  _240
REMARK   93  A    between atoms: _239  and  _242
REMARK   94  A    between atoms: _242  and  _243
REMARK   95  A    between atoms: _248  and  _250
REMARK   96  A    between atoms: _250  and  _251
REMARK   97  A    between atoms: _250  and  _253
REMARK   98  A    between atoms: _253  and  _254
REMARK                            x       y       z     vdW  Elec       q    Type
REMARK                         _______ _______ _______ _____ _____    ______ ____
ROOT
ATOM      1  O   HOH     1      46.063  31.816 -18.704  0.00  0.00    +0.000 OA
ENDROOT
TORSDOF 0
REMARK  Name = ../refined-set-2016/4trc/4trc_pocket.pdb
REMARK  98 active torsions:
REMARK  status: ('A' for Active; 'I' for Inactive)
REMARK    1  A    between atoms: _2  and  _3
REMARK    2  A    between atoms: _8  and  _10
REMARK    3  A    between atoms: _10  and  _11
REMARK    4  A    between atoms: _10  and  _13
REMARK    5  A    between atoms: _13  and  _14
REMARK    6  A    between atoms: _14  and  _15
REMARK    7  A    between atoms: _15  and  _16
REMARK    8  A    between atoms: _16  and  _17
REMARK    9  A    between atoms: _21  and  _23
REMARK   10  A    between atoms: _23  and  _24
REMARK   11  A    between atoms: _23  and  _26
REMARK   12  A    between atoms: _29  and  _31
REMARK   13  A    between atoms: _31  and  _32
REMARK   14  A    between atoms: _34  and  _36
REMARK   15  A    between atoms: _36  and  _37
REMARK   16  A    between atoms: _36  and  _39
REMARK   17  A    between atoms: _39  and  _40
REMARK   18  A    between atoms: _45  and  _47
REMARK   19  A    between atoms: _47  and  _48
REMARK   20  A    between atoms: _47  and  _50
REMARK   21  A    between atoms: _50  and  _51
REMARK   22  A    between atoms: _54  and  _56
REMARK   23  A    between atoms: _56  and  _57
REMARK   24  A    between atoms: _56  and  _59
REMARK   25  A    between atoms: _59  and  _60
REMARK   26  A    between atoms: _63  and  _65
REMARK   27  A    between atoms: _65  and  _66
REMARK   28  A    between atoms: _65  and  _68
REMARK   29  A    between atoms: _68  and  _69
REMARK   30  A    between atoms: _72  and  _74
REMARK   31  A    between atoms: _74  and  _75
REMARK   32  A    between atoms: _74  and  _77
REMARK   33  A    between atoms: _77  and  _78
REMARK   34  A    between atoms: _81  and  _83
REMARK   35  A    between atoms: _83  and  _84
REMARK   36  A    between atoms: _83  and  _86
REMARK   37  A    between atoms: _86  and  _87
REMARK   38  A    between atoms: _90  and  _92
REMARK   39  A    between atoms: _92  and  _93
REMARK   40  A    between atoms: _92  and  _95
REMARK   41  A    between atoms: _95  and  _96
REMARK   42  A    between atoms: _99  and  _101
REMARK   43  A    between atoms: _101  and  _102
REMARK   44  A    between atoms: _104  and  _106
REMARK   45  A    between atoms: _106  and  _107
REMARK   46  A    between atoms: _106  and  _109
REMARK   47  A    between atoms: _109  and  _110
REMARK   48  A    between atoms: _112  and  _114
REMARK   49  A    between atoms: _114  and  _115
REMARK   50  A    between atoms: _114  and  _117
REMARK   51  A    between atoms: _117  and  _118
REMARK   52  A    between atoms: _118  and  _119
REMARK   53  A    between atoms: _124  and  _126
REMARK   54  A    between atoms: _126  and  _127
REMARK   55  A    between atoms: _126  and  _129
REMARK   56  A    between atoms: _129  and  _130
REMARK   57  A    between atoms: _133  and  _135
REMARK   58  A    between atoms: _135  and  _136
REMARK   59  A    between atoms: _139  and  _141
REMARK   60  A    between atoms: _141  and  _142
REMARK   61  A    between atoms: _141  and  _144
REMARK   62  A    between atoms: _144  and  _145
REMARK   63  A    between atoms: _148  and  _150
REMARK   64  A    between atoms: _150  and  _151
REMARK   65  A    between atoms: _150  and  _153
REMARK   66  A    between atoms: _153  and  _154
REMARK   67  A    between atoms: _164  and  _166
REMARK   68  A    between atoms: _166  and  _167
REMARK   69  A    between atoms: _170  and  _172
REMARK   70  A    between atoms: _172  and  _173
REMARK   71  A    between atoms: _172  and  _175
REMARK   72  A    between atoms: _175  and  _176
REMARK   73  A    between atoms: _186  and  _188
REMARK   74  A    between atoms: _188  and  _189
REMARK   75  A    between atoms: _188  and  _191
REMARK   76  A    between atoms: _191  and  _192
REMARK   77  A    between atoms: _198  and  _200
REMARK   78  A    between atoms: _200  and  _201
REMARK   79  A    between atoms: _200  and  _203
REMARK   80  A    between atoms: _203  and  _204
REMARK   81  A    between atoms: _204  and  _205
REMARK   82  A    between atoms: _207  and  _209
REMARK   83  A    between atoms: _209  and  _210
REMARK   84  A    between atoms: _209  and  _212
REMARK   85  A    between atoms: _212  and  _213
REMARK   86  A    between atoms: _218  and  _219
REMARK   87  A    between atoms: _221  and  _223
REMARK   88  A    between atoms: _223  and  _224
REMARK   89  A    between atoms: _223  and  _226
REMARK   90  A    between atoms: _226  and  _227
REMARK   91  A    between atoms: _237  and  _239
REMARK   92  A    between atoms: _239  and  _240
REMARK   93  A    between atoms: _239  and  _242
REMARK   94  A    between atoms: _242  and  _243
REMARK   95  A    between atoms: _248  and  _250
REMARK   96  A    between atoms: _250  and  _251
REMARK   97  A    between atoms: _250  and  _253
REMARK   98  A    between atoms: _253  and  _254
REMARK                            x       y       z     vdW  Elec       q    Type
REMARK                         _______ _______ _______ _____ _____    ______ ____
ROOT
ATOM      1  O   HOH     1      37.129  33.473 -12.206  0.00  0.00    +0.000 OA
ENDROOT
TORSDOF 0
