REMARK  Name = ../refined-set-2016/3m8t/3m8t_pocket.pdb
REMARK  88 active torsions:
REMARK  status: ('A' for Active; 'I' for Inactive)
REMARK    1  A    between atoms: _1  and  _3
REMARK    2  A    between atoms: _3  and  _4
REMARK    3  A    between atoms: _3  and  _6
REMARK    4  A    between atoms: _6  and  _7
REMARK    5  A    between atoms: _17  and  _19
REMARK    6  A    between atoms: _19  and  _20
REMARK    7  A    between atoms: _22  and  _24
REMARK    8  A    between atoms: _24  and  _25
REMARK    9  A    between atoms: _24  and  _27
REMARK   10  A    between atoms: _27  and  _28
REMARK   11  A    between atoms: _31  and  _33
REMARK   12  A    between atoms: _33  and  _34
REMARK   13  A    between atoms: _33  and  _36
REMARK   14  A    between atoms: _36  and  _37
REMARK   15  A    between atoms: _37  and  _38
REMARK   16  A    between atoms: _40  and  _42
REMARK   17  A    between atoms: _59  and  _60
REMARK   18  A    between atoms: _68  and  _70
REMARK   19  A    between atoms: _70  and  _71
REMARK   20  A    between atoms: _70  and  _73
REMARK   21  A    between atoms: _73  and  _74
REMARK   22  A    between atoms: _77  and  _79
REMARK   23  A    between atoms: _88  and  _89
REMARK   24  A    between atoms: _97  and  _99
REMARK   25  A    between atoms: _99  and  _100
REMARK   26  A    between atoms: _99  and  _102
REMARK   27  A    between atoms: _102  and  _103
REMARK   28  A    between atoms: _106  and  _108
REMARK   29  A    between atoms: _108  and  _109
REMARK   30  A    between atoms: _108  and  _111
REMARK   31  A    between atoms: _111  and  _112
REMARK   32  A    between atoms: _117  and  _118
REMARK   33  A    between atoms: _120  and  _122
REMARK   34  A    between atoms: _122  and  _123
REMARK   35  A    between atoms: _122  and  _125
REMARK   36  A    between atoms: _125  and  _126
REMARK   37  A    between atoms: _131  and  _133
REMARK   38  A    between atoms: _133  and  _134
REMARK   39  A    between atoms: _133  and  _136
REMARK   40  A    between atoms: _136  and  _137
REMARK   41  A    between atoms: _140  and  _142
REMARK   42  A    between atoms: _142  and  _143
REMARK   43  A    between atoms: _142  and  _145
REMARK   44  A    between atoms: _145  and  _146
REMARK   45  A    between atoms: _149  and  _151
REMARK   46  A    between atoms: _151  and  _152
REMARK   47  A    between atoms: _155  and  _157
REMARK   48  A    between atoms: _157  and  _158
REMARK   49  A    between atoms: _157  and  _160
REMARK   50  A    between atoms: _160  and  _161
REMARK   51  A    between atoms: _165  and  ZN_261
REMARK   52  A    between atoms: _166  and  _168
REMARK   53  A    between atoms: _168  and  _169
REMARK   54  A    between atoms: _168  and  _171
REMARK   55  A    between atoms: _173  and  _175
REMARK   56  A    between atoms: _175  and  _176
REMARK   57  A    between atoms: _175  and  _178
REMARK   58  A    between atoms: _178  and  _179
REMARK   59  A    between atoms: _181  and  _183
REMARK   60  A    between atoms: _183  and  _184
REMARK   61  A    between atoms: _186  and  _188
REMARK   62  A    between atoms: _188  and  _189
REMARK   63  A    between atoms: _188  and  _191
REMARK   64  A    between atoms: _191  and  _192
REMARK   65  A    between atoms: _195  and  _197
REMARK   66  A    between atoms: _197  and  _198
REMARK   67  A    between atoms: _197  and  _200
REMARK   68  A    between atoms: _203  and  _205
REMARK   69  A    between atoms: _205  and  _206
REMARK   70  A    between atoms: _209  and  _211
REMARK   71  A    between atoms: _211  and  _212
REMARK   72  A    between atoms: _211  and  _214
REMARK   73  A    between atoms: _214  and  _215
REMARK   74  A    between atoms: _218  and  _220
REMARK   75  A    between atoms: _220  and  _221
REMARK   76  A    between atoms: _220  and  _223
REMARK   77  A    between atoms: _223  and  _224
REMARK   78  A    between atoms: _229  and  _231
REMARK   79  A    between atoms: _231  and  _232
REMARK   80  A    between atoms: _231  and  _234
REMARK   81  A    between atoms: _234  and  _235
REMARK   82  A    between atoms: _240  and  _241
REMARK   83  A    between atoms: _244  and  _245
REMARK   84  A    between atoms: _250  and  _252
REMARK   85  A    between atoms: _252  and  _253
REMARK   86  A    between atoms: _252  and  _255
REMARK   87  A    between atoms: _255  and  _256
REMARK   88  A    between atoms: _260  and  ZN_262
REMARK                            x       y       z     vdW  Elec       q    Type
REMARK                         _______ _______ _______ _____ _____    ______ ____
ROOT
ATOM      1  CG  TRP A   1       3.999  10.720   7.437  0.00  0.00    -0.002 A 
ATOM      2  CD1 TRP A   1       2.704  11.062   7.155  0.00  0.00    +0.068 A 
ATOM      3  NE1 TRP A   1       2.578  11.438   5.846  0.00  0.00    -0.352 N 
ATOM      4  HE1 TRP A   1       1.700  11.745   5.380  0.00  0.00    +0.166 HD
ATOM      5  CE2 TRP A   1       3.809  11.340   5.258  0.00  0.00    +0.056 A 
ATOM      6  CZ2 TRP A   1       4.176  11.593   3.944  0.00  0.00    +0.017 A 
ATOM      7  CH2 TRP A   1       5.492  11.430   3.621  0.00  0.00    +0.001 A 
ATOM      8  CZ3 TRP A   1       6.437  10.991   4.564  0.00  0.00    +0.000 A 
ATOM      9  CE3 TRP A   1       6.073  10.710   5.882  0.00  0.00    +0.001 A 
ATOM     10  CD2 TRP A   1       4.729  10.886   6.235  0.00  0.00    +0.013 A 
ENDROOT
BRANCH   1  11
ATOM     11  CB  TRP A   1       4.513  10.261   8.696  0.00  0.00    +0.053 C 
BRANCH  11  12
ATOM     12  CA  TRP A   1       3.432   9.944   9.713  0.00  0.00    +0.137 C 
BRANCH  12  13
ATOM     13  N   TRP A   1       2.897  11.154  10.282  0.00  0.00    -0.239 NA
ATOM     14  H   TRP A   1       3.289  12.082  10.023  0.00  0.00    +0.142 HD
ENDBRANCH  12  13
BRANCH  12  15
ATOM     15  C   TRP A   1       4.019   9.052  10.758  0.00  0.00    +0.224 C 
ATOM     16  O   TRP A   1       3.999   7.832  10.560  0.00  0.00    -0.287 OA
ENDBRANCH  12  15
ENDBRANCH  11  12
ENDBRANCH   1  11
TORSDOF 4
REMARK  Name = ../refined-set-2016/3m8t/3m8t_pocket.pdb
REMARK  88 active torsions:
REMARK  status: ('A' for Active; 'I' for Inactive)
REMARK    1  A    between atoms: _1  and  _3
REMARK    2  A    between atoms: _3  and  _4
REMARK    3  A    between atoms: _3  and  _6
REMARK    4  A    between atoms: _6  and  _7
REMARK    5  A    between atoms: _17  and  _19
REMARK    6  A    between atoms: _19  and  _20
REMARK    7  A    between atoms: _22  and  _24
REMARK    8  A    between atoms: _24  and  _25
REMARK    9  A    between atoms: _24  and  _27
REMARK   10  A    between atoms: _27  and  _28
REMARK   11  A    between atoms: _31  and  _33
REMARK   12  A    between atoms: _33  and  _34
REMARK   13  A    between atoms: _33  and  _36
REMARK   14  A    between atoms: _36  and  _37
REMARK   15  A    between atoms: _37  and  _38
REMARK   16  A    between atoms: _40  and  _42
REMARK   17  A    between atoms: _59  and  _60
REMARK   18  A    between atoms: _68  and  _70
REMARK   19  A    between atoms: _70  and  _71
REMARK   20  A    between atoms: _70  and  _73
REMARK   21  A    between atoms: _73  and  _74
REMARK   22  A    between atoms: _77  and  _79
REMARK   23  A    between atoms: _88  and  _89
REMARK   24  A    between atoms: _97  and  _99
REMARK   25  A    between atoms: _99  and  _100
REMARK   26  A    between atoms: _99  and  _102
REMARK   27  A    between atoms: _102  and  _103
REMARK   28  A    between atoms: _106  and  _108
REMARK   29  A    between atoms: _108  and  _109
REMARK   30  A    between atoms: _108  and  _111
REMARK   31  A    between atoms: _111  and  _112
REMARK   32  A    between atoms: _117  and  _118
REMARK   33  A    between atoms: _120  and  _122
REMARK   34  A    between atoms: _122  and  _123
REMARK   35  A    between atoms: _122  and  _125
REMARK   36  A    between atoms: _125  and  _126
REMARK   37  A    between atoms: _131  and  _133
REMARK   38  A    between atoms: _133  and  _134
REMARK   39  A    between atoms: _133  and  _136
REMARK   40  A    between atoms: _136  and  _137
REMARK   41  A    between atoms: _140  and  _142
REMARK   42  A    between atoms: _142  and  _143
REMARK   43  A    between atoms: _142  and  _145
REMARK   44  A    between atoms: _145  and  _146
REMARK   45  A    between atoms: _149  and  _151
REMARK   46  A    between atoms: _151  and  _152
REMARK   47  A    between atoms: _155  and  _157
REMARK   48  A    between atoms: _157  and  _158
REMARK   49  A    between atoms: _157  and  _160
REMARK   50  A    between atoms: _160  and  _161
REMARK   51  A    between atoms: _165  and  ZN_261
REMARK   52  A    between atoms: _166  and  _168
REMARK   53  A    between atoms: _168  and  _169
REMARK   54  A    between atoms: _168  and  _171
REMARK   55  A    between atoms: _173  and  _175
REMARK   56  A    between atoms: _175  and  _176
REMARK   57  A    between atoms: _175  and  _178
REMARK   58  A    between atoms: _178  and  _179
REMARK   59  A    between atoms: _181  and  _183
REMARK   60  A    between atoms: _183  and  _184
REMARK   61  A    between atoms: _186  and  _188
REMARK   62  A    between atoms: _188  and  _189
REMARK   63  A    between atoms: _188  and  _191
REMARK   64  A    between atoms: _191  and  _192
REMARK   65  A    between atoms: _195  and  _197
REMARK   66  A    between atoms: _197  and  _198
REMARK   67  A    between atoms: _197  and  _200
REMARK   68  A    between atoms: _203  and  _205
REMARK   69  A    between atoms: _205  and  _206
REMARK   70  A    between atoms: _209  and  _211
REMARK   71  A    between atoms: _211  and  _212
REMARK   72  A    between atoms: _211  and  _214
REMARK   73  A    between atoms: _214  and  _215
REMARK   74  A    between atoms: _218  and  _220
REMARK   75  A    between atoms: _220  and  _221
REMARK   76  A    between atoms: _220  and  _223
REMARK   77  A    between atoms: _223  and  _224
REMARK   78  A    between atoms: _229  and  _231
REMARK   79  A    between atoms: _231  and  _232
REMARK   80  A    between atoms: _231  and  _234
REMARK   81  A    between atoms: _234  and  _235
REMARK   82  A    between atoms: _240  and  _241
REMARK   83  A    between atoms: _244  and  _245
REMARK   84  A    between atoms: _250  and  _252
REMARK   85  A    between atoms: _252  and  _253
REMARK   86  A    between atoms: _252  and  _255
REMARK   87  A    between atoms: _255  and  _256
REMARK   88  A    between atoms: _260  and  ZN_262
REMARK                            x       y       z     vdW  Elec       q    Type
REMARK                         _______ _______ _______ _____ _____    ______ ____
ROOT
ATOM      1  C   GLY A   1       0.059   8.032   7.472  0.00  0.00    +0.240 C 
ATOM      2  N   ILE A   2       0.455   6.802   7.816  0.00  0.00    -0.298 N 
ATOM      3  H   ILE A   2       0.414   6.523   8.817  0.00  0.00    +0.150 HD
ATOM      4  O   GLY A   1       0.042   8.452   6.324  0.00  0.00    -0.274 OA
ENDROOT
BRANCH   1   5
ATOM      5  CA  GLY A   1      -0.435   8.961   8.562  0.00  0.00    +0.169 C 
BRANCH   5   6
ATOM      6  N   GLY A   1      -0.646   8.378   9.874  0.00  0.00    -0.236 NA
ATOM      7  H   GLY A   1       0.142   7.883  10.339  0.00  0.00    +0.142 HD
ENDBRANCH   5   6
ENDBRANCH   1   5
BRANCH   2   8
ATOM      8  CA  ILE A   2       0.945   5.833   6.831  0.00  0.00    +0.137 C 
BRANCH   8   9
ATOM      9  C   ILE A   2       0.256   4.515   7.138  0.00  0.00    +0.227 C 
ATOM     10  O   ILE A   2       0.291   4.032   8.259  0.00  0.00    -0.286 OA
ENDBRANCH   8   9
BRANCH   8  11
ATOM     11  CB  ILE A   2       2.479   5.654   6.906  0.00  0.00    +0.026 C 
ATOM     12  CG2 ILE A   2       2.937   4.483   6.028  0.00  0.00    +0.002 C 
BRANCH  11  13
ATOM     13  CG1 ILE A   2       3.184   6.968   6.548  0.00  0.00    +0.002 C 
ATOM     14  CD1 ILE A   2       4.681   7.000   6.878  0.00  0.00    +0.000 C 
ENDBRANCH  11  13
ENDBRANCH   8  11
ENDBRANCH   2   8
TORSDOF 6
REMARK  Name = ../refined-set-2016/3m8t/3m8t_pocket.pdb
REMARK  88 active torsions:
REMARK  status: ('A' for Active; 'I' for Inactive)
REMARK    1  A    between atoms: _1  and  _3
REMARK    2  A    between atoms: _3  and  _4
REMARK    3  A    between atoms: _3  and  _6
REMARK    4  A    between atoms: _6  and  _7
REMARK    5  A    between atoms: _17  and  _19
REMARK    6  A    between atoms: _19  and  _20
REMARK    7  A    between atoms: _22  and  _24
REMARK    8  A    between atoms: _24  and  _25
REMARK    9  A    between atoms: _24  and  _27
REMARK   10  A    between atoms: _27  and  _28
REMARK   11  A    between atoms: _31  and  _33
REMARK   12  A    between atoms: _33  and  _34
REMARK   13  A    between atoms: _33  and  _36
REMARK   14  A    between atoms: _36  and  _37
REMARK   15  A    between atoms: _37  and  _38
REMARK   16  A    between atoms: _40  and  _42
REMARK   17  A    between atoms: _59  and  _60
REMARK   18  A    between atoms: _68  and  _70
REMARK   19  A    between atoms: _70  and  _71
REMARK   20  A    between atoms: _70  and  _73
REMARK   21  A    between atoms: _73  and  _74
REMARK   22  A    between atoms: _77  and  _79
REMARK   23  A    between atoms: _88  and  _89
REMARK   24  A    between atoms: _97  and  _99
REMARK   25  A    between atoms: _99  and  _100
REMARK   26  A    between atoms: _99  and  _102
REMARK   27  A    between atoms: _102  and  _103
REMARK   28  A    between atoms: _106  and  _108
REMARK   29  A    between atoms: _108  and  _109
REMARK   30  A    between atoms: _108  and  _111
REMARK   31  A    between atoms: _111  and  _112
REMARK   32  A    between atoms: _117  and  _118
REMARK   33  A    between atoms: _120  and  _122
REMARK   34  A    between atoms: _122  and  _123
REMARK   35  A    between atoms: _122  and  _125
REMARK   36  A    between atoms: _125  and  _126
REMARK   37  A    between atoms: _131  and  _133
REMARK   38  A    between atoms: _133  and  _134
REMARK   39  A    between atoms: _133  and  _136
REMARK   40  A    between atoms: _136  and  _137
REMARK   41  A    between atoms: _140  and  _142
REMARK   42  A    between atoms: _142  and  _143
REMARK   43  A    between atoms: _142  and  _145
REMARK   44  A    between atoms: _145  and  _146
REMARK   45  A    between atoms: _149  and  _151
REMARK   46  A    between atoms: _151  and  _152
REMARK   47  A    between atoms: _155  and  _157
REMARK   48  A    between atoms: _157  and  _158
REMARK   49  A    between atoms: _157  and  _160
REMARK   50  A    between atoms: _160  and  _161
REMARK   51  A    between atoms: _165  and  ZN_261
REMARK   52  A    between atoms: _166  and  _168
REMARK   53  A    between atoms: _168  and  _169
REMARK   54  A    between atoms: _168  and  _171
REMARK   55  A    between atoms: _173  and  _175
REMARK   56  A    between atoms: _175  and  _176
REMARK   57  A    between atoms: _175  and  _178
REMARK   58  A    between atoms: _178  and  _179
REMARK   59  A    between atoms: _181  and  _183
REMARK   60  A    between atoms: _183  and  _184
REMARK   61  A    between atoms: _186  and  _188
REMARK   62  A    between atoms: _188  and  _189
REMARK   63  A    between atoms: _188  and  _191
REMARK   64  A    between atoms: _191  and  _192
REMARK   65  A    between atoms: _195  and  _197
REMARK   66  A    between atoms: _197  and  _198
REMARK   67  A    between atoms: _197  and  _200
REMARK   68  A    between atoms: _203  and  _205
REMARK   69  A    between atoms: _205  and  _206
REMARK   70  A    between atoms: _209  and  _211
REMARK   71  A    between atoms: _211  and  _212
REMARK   72  A    between atoms: _211  and  _214
REMARK   73  A    between atoms: _214  and  _215
REMARK   74  A    between atoms: _218  and  _220
REMARK   75  A    between atoms: _220  and  _221
REMARK   76  A    between atoms: _220  and  _223
REMARK   77  A    between atoms: _223  and  _224
REMARK   78  A    between atoms: _229  and  _231
REMARK   79  A    between atoms: _231  and  _232
REMARK   80  A    between atoms: _231  and  _234
REMARK   81  A    between atoms: _234  and  _235
REMARK   82  A    between atoms: _240  and  _241
REMARK   83  A    between atoms: _244  and  _245
REMARK   84  A    between atoms: _250  and  _252
REMARK   85  A    between atoms: _252  and  _253
REMARK   86  A    between atoms: _252  and  _255
REMARK   87  A    between atoms: _255  and  _256
REMARK   88  A    between atoms: _260  and  ZN_262
REMARK                            x       y       z     vdW  Elec       q    Type
REMARK                         _______ _______ _______ _____ _____    ______ ____
ROOT
ATOM      1  CA  MET A   1       9.260   5.475   7.543  0.00  0.00    +0.134 C 
ENDROOT
BRANCH   1   2
ATOM      2  N   MET A   1       7.981   4.786   7.627  0.00  0.00    -0.239 NA
ATOM      3  H   MET A   1       7.196   5.215   8.158  0.00  0.00    +0.142 HD
ENDBRANCH   1   2
BRANCH   1   4
ATOM      4  C   MET A   1      10.342   4.617   8.148  0.00  0.00    +0.224 C 
ATOM      5  O   MET A   1      10.076   3.797   9.033  0.00  0.00    -0.287 OA
ENDBRANCH   1   4
BRANCH   1   6
ATOM      6  CB  MET A   1       9.225   6.809   8.271  0.00  0.00    +0.037 C 
BRANCH   6   7
ATOM      7  CG  MET A   1       8.432   7.880   7.547  0.00  0.00    +0.059 C 
BRANCH   7   8
ATOM      8  SD  MET A   1       9.148   8.480   6.052  0.00  0.00    -0.139 S 
ATOM      9  CE  MET A   1      10.403   9.606   6.697  0.00  0.00    +0.069 C 
ENDBRANCH   7   8
ENDBRANCH   6   7
ENDBRANCH   1   6
TORSDOF 5
REMARK  Name = ../refined-set-2016/3m8t/3m8t_pocket.pdb
REMARK  88 active torsions:
REMARK  status: ('A' for Active; 'I' for Inactive)
REMARK    1  A    between atoms: _1  and  _3
REMARK    2  A    between atoms: _3  and  _4
REMARK    3  A    between atoms: _3  and  _6
REMARK    4  A    between atoms: _6  and  _7
REMARK    5  A    between atoms: _17  and  _19
REMARK    6  A    between atoms: _19  and  _20
REMARK    7  A    between atoms: _22  and  _24
REMARK    8  A    between atoms: _24  and  _25
REMARK    9  A    between atoms: _24  and  _27
REMARK   10  A    between atoms: _27  and  _28
REMARK   11  A    between atoms: _31  and  _33
REMARK   12  A    between atoms: _33  and  _34
REMARK   13  A    between atoms: _33  and  _36
REMARK   14  A    between atoms: _36  and  _37
REMARK   15  A    between atoms: _37  and  _38
REMARK   16  A    between atoms: _40  and  _42
REMARK   17  A    between atoms: _59  and  _60
REMARK   18  A    between atoms: _68  and  _70
REMARK   19  A    between atoms: _70  and  _71
REMARK   20  A    between atoms: _70  and  _73
REMARK   21  A    between atoms: _73  and  _74
REMARK   22  A    between atoms: _77  and  _79
REMARK   23  A    between atoms: _88  and  _89
REMARK   24  A    between atoms: _97  and  _99
REMARK   25  A    between atoms: _99  and  _100
REMARK   26  A    between atoms: _99  and  _102
REMARK   27  A    between atoms: _102  and  _103
REMARK   28  A    between atoms: _106  and  _108
REMARK   29  A    between atoms: _108  and  _109
REMARK   30  A    between atoms: _108  and  _111
REMARK   31  A    between atoms: _111  and  _112
REMARK   32  A    between atoms: _117  and  _118
REMARK   33  A    between atoms: _120  and  _122
REMARK   34  A    between atoms: _122  and  _123
REMARK   35  A    between atoms: _122  and  _125
REMARK   36  A    between atoms: _125  and  _126
REMARK   37  A    between atoms: _131  and  _133
REMARK   38  A    between atoms: _133  and  _134
REMARK   39  A    between atoms: _133  and  _136
REMARK   40  A    between atoms: _136  and  _137
REMARK   41  A    between atoms: _140  and  _142
REMARK   42  A    between atoms: _142  and  _143
REMARK   43  A    between atoms: _142  and  _145
REMARK   44  A    between atoms: _145  and  _146
REMARK   45  A    between atoms: _149  and  _151
REMARK   46  A    between atoms: _151  and  _152
REMARK   47  A    between atoms: _155  and  _157
REMARK   48  A    between atoms: _157  and  _158
REMARK   49  A    between atoms: _157  and  _160
REMARK   50  A    between atoms: _160  and  _161
REMARK   51  A    between atoms: _165  and  ZN_261
REMARK   52  A    between atoms: _166  and  _168
REMARK   53  A    between atoms: _168  and  _169
REMARK   54  A    between atoms: _168  and  _171
REMARK   55  A    between atoms: _173  and  _175
REMARK   56  A    between atoms: _175  and  _176
REMARK   57  A    between atoms: _175  and  _178
REMARK   58  A    between atoms: _178  and  _179
REMARK   59  A    between atoms: _181  and  _183
REMARK   60  A    between atoms: _183  and  _184
REMARK   61  A    between atoms: _186  and  _188
REMARK   62  A    between atoms: _188  and  _189
REMARK   63  A    between atoms: _188  and  _191
REMARK   64  A    between atoms: _191  and  _192
REMARK   65  A    between atoms: _195  and  _197
REMARK   66  A    between atoms: _197  and  _198
REMARK   67  A    between atoms: _197  and  _200
REMARK   68  A    between atoms: _203  and  _205
REMARK   69  A    between atoms: _205  and  _206
REMARK   70  A    between atoms: _209  and  _211
REMARK   71  A    between atoms: _211  and  _212
REMARK   72  A    between atoms: _211  and  _214
REMARK   73  A    between atoms: _214  and  _215
REMARK   74  A    between atoms: _218  and  _220
REMARK   75  A    between atoms: _220  and  _221
REMARK   76  A    between atoms: _220  and  _223
REMARK   77  A    between atoms: _223  and  _224
REMARK   78  A    between atoms: _229  and  _231
REMARK   79  A    between atoms: _231  and  _232
REMARK   80  A    between atoms: _231  and  _234
REMARK   81  A    between atoms: _234  and  _235
REMARK   82  A    between atoms: _240  and  _241
REMARK   83  A    between atoms: _244  and  _245
REMARK   84  A    between atoms: _250  and  _252
REMARK   85  A    between atoms: _252  and  _253
REMARK   86  A    between atoms: _252  and  _255
REMARK   87  A    between atoms: _255  and  _256
REMARK   88  A    between atoms: _260  and  ZN_262
REMARK                            x       y       z     vdW  Elec       q    Type
REMARK                         _______ _______ _______ _____ _____    ______ ____
ROOT
ATOM      1  C   LEU A   4       9.682   5.563   2.848  0.00  0.00    +0.000 C 
ATOM      2  O   LEU A   4       9.906   4.874   3.829  0.00  0.00    +0.000 OA
ATOM      3  N   UNK A   5       8.565   6.260   2.700  0.00  0.00    +0.000 N 
ATOM      4  H   UNK A   5       8.435   6.843   1.849  0.00  0.00    +0.000 HD
ENDROOT
BRANCH   3   5
ATOM      5  C   UNK A   5       7.514   6.223   3.711  0.00  0.00    +0.000 C 
ATOM      6  C   UNK A   5       6.718   4.928   3.676  0.00  0.00    +0.000 C 
ATOM      7  O   UNK A   5       5.922   4.705   4.582  0.00  0.00    +0.000 OA
ATOM      8  N   UNK A   6       6.939   4.110   2.648  0.00  0.00    +0.000 N 
ATOM      9  C   UNK A   6       6.351   2.752   2.532  0.00  0.00    +0.000 C 
ATOM     10  C   UNK A   6       5.445   2.680   1.286  0.00  0.00    +0.000 C 
ATOM     11  C   UNK A   6       4.538   3.865   1.177  0.00  0.00    +0.000 A 
ATOM     12  N   UNK A   6       3.495   4.063   2.040  0.00  0.00    +0.000 NA
ATOM     13  C   UNK A   6       2.956   5.259   1.812  0.00  0.00    +0.000 A 
ATOM     14  N   UNK A   6       3.616   5.854   0.819  0.00  0.00    +0.000 N 
ATOM     15 ZN   UNK A   6       3.627   7.882   0.657  0.00  0.00    +0.000 Zn
ATOM     16  O   UNK A   6       4.787   8.177   2.287  0.00  0.00    +0.000 OA
ATOM     17  C   UNK A   6       5.959   7.673   2.281  0.00  0.00    +0.000 C 
ATOM     18  O   UNK A   6       6.583   7.357   1.226  0.00  0.00    +0.000 OA
ATOM     19  C   UNK A   6       4.618   4.996   0.413  0.00  0.00    +0.000 A 
ATOM     20  H   UNK A   6       7.560   4.442   1.882  0.00  0.00    +0.000 HD
ATOM     21  C   UNK A   5       6.633   7.483   3.628  0.00  0.00    +0.000 C 
BRANCH  15  22
ATOM     22  N   UNK A   6       1.911   8.238   1.730  0.00  0.00    +0.000 N 
ATOM     23  C   UNK A   6       1.977   8.482   3.033  0.00  0.00    +0.000 A 
ATOM     24  N   UNK A   6       0.758   8.373   3.557  0.00  0.00    +0.000 NA
ATOM     25  C   UNK A   6      -0.134   8.081   2.550  0.00  0.00    +0.000 A 
ATOM     26  C   UNK A   6       0.597   8.013   1.408  0.00  0.00    +0.000 A 
BRANCH  25  27
ATOM     27  C   UNK A   6      -1.600   7.879   2.804  0.00  0.00    +0.000 C 
BRANCH  27  28
ATOM     28  C   UNK A   6      -1.963   6.475   3.368  0.00  0.00    +0.000 C 
BRANCH  28  29
ATOM     29  N   UNK A   6      -1.721   5.429   2.393  0.00  0.00    +0.000 N 
ATOM     30  C   UNK A   1      -0.750   4.531   2.520  0.00  0.00    +0.000 C 
ATOM     31  O   UNK A   1       0.162   4.615   3.342  0.00  0.00    +0.000 OA
ATOM     32  H   UNK A   2      -2.336   5.380   1.556  0.00  0.00    +0.000 HD
BRANCH  30  33
ATOM     33  C   UNK A   1      -0.785   3.311   1.599  0.00  0.00    +0.000 C 
ATOM     34  N   UNK A   1      -1.970   3.303   0.730  0.00  0.00    +0.000 NA
ATOM     35  C   UNK A   1      -1.613   3.559  -0.665  0.00  0.00    +0.000 C 
ATOM     36  C   UNK A   1      -0.170   3.817  -0.609  0.00  0.00    +0.000 C 
ATOM     37  C   UNK A   1       0.363   3.286   0.601  0.00  0.00    +0.000 C 
ENDBRANCH  30  33
ENDBRANCH  28  29
BRANCH  28  38
ATOM     38  C   UNK A   6      -3.439   6.444   3.722  0.00  0.00    +0.000 C 
ATOM     39  O   UNK A   2      -4.275   6.234   2.831  0.00  0.00    +0.000 OA
ENDBRANCH  28  38
ENDBRANCH  27  28
ENDBRANCH  25  27
ENDBRANCH  15  22
BRANCH   9  40
ATOM     40  C   UNK A   6       7.353   1.630   2.555  0.00  0.00    +0.000 C 
ATOM     41  O   UNK A   6       6.974   0.500   2.794  0.00  0.00    +0.000 OA
ATOM     42  N   THR A   7       8.620   1.949   2.288  0.00  0.00    +0.000 N 
ATOM     43  H   THR A   7       8.878   2.951   2.179  0.00  0.00    +0.000 HD
BRANCH  42  44
ATOM     44  CA  THR A   7       9.657   0.925   2.144  0.00  0.00    +0.000 C 
BRANCH  44  45
ATOM     45  CB  THR A   7      10.442   1.161   0.872  0.00  0.00    +0.000 C 
ATOM     46  CG2 THR A   7       9.529   1.143  -0.370  0.00  0.00    +0.000 C 
BRANCH  45  47
ATOM     47  OG1 THR A   7      11.096   2.419   1.023  0.00  0.00    +0.000 OA
ATOM     48  HG1 THR A   7      10.418   3.128   1.156  0.00  0.00    +0.000 HD
ENDBRANCH  45  47
ENDBRANCH  44  45
BRANCH  44  49
ATOM     49  C   THR A   7      10.647   0.923   3.314  0.00  0.00    +0.000 C 
ATOM     50  O   THR A   7      11.577   0.129   3.324  0.00  0.00    +0.000 OA
ENDBRANCH  44  49
ENDBRANCH  42  44
ENDBRANCH   9  40
ENDBRANCH   3   5
BRANCH   1  51
ATOM     51  CA  LEU A   4      10.729   5.670   1.760  0.00  0.00    +0.000 C 
BRANCH  51  53
ATOM     52  C   UNK A   3       9.271   5.229  -0.176  0.00  0.00    +0.000 C 
ATOM     53  N   LEU A   4      10.221   5.980   0.415  0.00  0.00    +0.000 N 
ATOM     54  H   LEU A   4      10.606   6.801  -0.094  0.00  0.00    +0.000 HD
ATOM     55  O   UNK A   3       8.659   4.306   0.371  0.00  0.00    +0.000 OA
BRANCH  52  63
ATOM     56  C   UNK A   3       5.143   1.715  -4.381  0.00  0.00    +0.000 C 
ATOM     57  C   UNK A   3       6.375   2.082  -3.575  0.00  0.00    +0.000 C 
ATOM     58  O   UNK A   1       6.352   2.161  -2.338  0.00  0.00    +0.000 OA
ATOM     59  N   UNK A   2       7.474   2.326  -4.272  0.00  0.00    +0.000 N 
ATOM     60  C   UNK A   2       8.794   2.329  -3.661  0.00  0.00    +0.000 C 
ATOM     61  C   UNK A   2       9.248   3.732  -3.263  0.00  0.00    +0.000 C 
ATOM     62  N   UNK A   3       8.533   4.345  -2.328  0.00  0.00    +0.000 N 
ATOM     63  C   UNK A   3       8.972   5.559  -1.620  0.00  0.00    +0.000 C 
ATOM     64  C   UNK A   3       7.940   6.702  -1.706  0.00  0.00    +0.000 C 
ATOM     65  C   UNK A   3       7.767   7.256  -3.084  0.00  0.00    +0.000 A 
ATOM     66  N   UNK A   3       6.618   7.903  -3.462  0.00  0.00    +0.000 N 
ATOM     67 ZN   UNK A   3       4.741   7.912  -2.579  0.00  0.00    +0.000 Zn
ATOM     68  N   UNK A   3       4.397   5.891  -2.698  0.00  0.00    +0.000 N 
ATOM     69  C   UNK A   3       3.184   5.360  -2.567  0.00  0.00    +0.000 A 
ATOM     70  N   UNK A   3       3.082   4.283  -3.335  0.00  0.00    +0.000 NA
ATOM     71  C   UNK A   3       4.275   4.095  -4.001  0.00  0.00    +0.000 A 
ATOM     72  C   UNK A   3       5.091   5.110  -3.601  0.00  0.00    +0.000 A 
ATOM     73  C   UNK A   3       6.749   8.286  -4.728  0.00  0.00    +0.000 A 
ATOM     74  N   UNK A   3       7.931   7.883  -5.181  0.00  0.00    +0.000 NA
ATOM     75  C   UNK A   3       8.596   7.258  -4.156  0.00  0.00    +0.000 A 
ATOM     76  H   UNK A   3       7.606   3.943  -2.080  0.00  0.00    +0.000 HD
ATOM     77  O   UNK A   2      10.232   4.226  -3.810  0.00  0.00    +0.000 OA
ATOM     78  C   UNK A   2       9.793   1.670  -4.601  0.00  0.00    +0.000 C 
ATOM     79  H   UNK A   2       7.391   2.522  -5.290  0.00  0.00    +0.000 HD
ATOM     80  C   UNK A   3       4.511   2.981  -4.984  0.00  0.00    +0.000 C 
BRANCH  67  81
ATOM     81  N   UNK A   3       3.554   8.355  -4.190  0.00  0.00    +0.000 N 
ATOM     82  C   UNK A   3       2.956   9.486  -4.536  0.00  0.00    +0.000 A 
ATOM     83  N   UNK A   3       2.385   9.342  -5.732  0.00  0.00    +0.000 NA
ATOM     84  C   UNK A   3       2.642   8.068  -6.180  0.00  0.00    +0.000 A 
ATOM     85  C   UNK A   3       3.383   7.465  -5.223  0.00  0.00    +0.000 A 
BRANCH  84  86
ATOM     86  C   UNK A   3       2.175   7.575  -7.492  0.00  0.00    +0.000 C 
BRANCH  86  87
ATOM     87  C   UNK A   3       3.110   7.924  -8.650  0.00  0.00    +0.000 C 
BRANCH  87  88
ATOM     88  N   UNK A   3       2.536   7.499  -9.917  0.00  0.00    +0.000 NA
ATOM     89  H   UNK A   1       1.649   6.956  -9.927  0.00  0.00    +0.000 HD
ENDBRANCH  87  88
BRANCH  87  90
ATOM     90  C   UNK A   3       4.523   7.352  -8.450  0.00  0.00    +0.000 C 
ATOM     91  O   UNK A   1       5.383   8.035  -7.885  0.00  0.00    +0.000 OA
ENDBRANCH  87  90
ENDBRANCH  86  87
ENDBRANCH  84  86
ENDBRANCH  67  81
BRANCH  56  92
ATOM     92  N   UNK A   3       4.205   0.921  -3.580  0.00  0.00    +0.000 NA
ATOM     93  H   UNK A   1       4.244   0.948  -2.541  0.00  0.00    +0.000 HD
ENDBRANCH  56  92
ENDBRANCH  52  63
ENDBRANCH  51  53
BRANCH  51  94
ATOM     94  CB  LEU A   4      11.791   6.685   2.202  0.00  0.00    +0.000 C 
BRANCH  94  95
ATOM     95  CG  LEU A   4      11.392   8.019   2.779  0.00  0.00    +0.000 C 
ATOM     96  CD2 LEU A   4      12.577   8.686   3.512  0.00  0.00    +0.000 C 
ATOM     97  CD1 LEU A   4      10.850   8.936   1.661  0.00  0.00    +0.000 C 
ENDBRANCH  94  95
ENDBRANCH  51  94
ENDBRANCH   1  51
TORSDOF 23
REMARK  Name = ../refined-set-2016/3m8t/3m8t_pocket.pdb
REMARK  88 active torsions:
REMARK  status: ('A' for Active; 'I' for Inactive)
REMARK    1  A    between atoms: _1  and  _3
REMARK    2  A    between atoms: _3  and  _4
REMARK    3  A    between atoms: _3  and  _6
REMARK    4  A    between atoms: _6  and  _7
REMARK    5  A    between atoms: _17  and  _19
REMARK    6  A    between atoms: _19  and  _20
REMARK    7  A    between atoms: _22  and  _24
REMARK    8  A    between atoms: _24  and  _25
REMARK    9  A    between atoms: _24  and  _27
REMARK   10  A    between atoms: _27  and  _28
REMARK   11  A    between atoms: _31  and  _33
REMARK   12  A    between atoms: _33  and  _34
REMARK   13  A    between atoms: _33  and  _36
REMARK   14  A    between atoms: _36  and  _37
REMARK   15  A    between atoms: _37  and  _38
REMARK   16  A    between atoms: _40  and  _42
REMARK   17  A    between atoms: _59  and  _60
REMARK   18  A    between atoms: _68  and  _70
REMARK   19  A    between atoms: _70  and  _71
REMARK   20  A    between atoms: _70  and  _73
REMARK   21  A    between atoms: _73  and  _74
REMARK   22  A    between atoms: _77  and  _79
REMARK   23  A    between atoms: _88  and  _89
REMARK   24  A    between atoms: _97  and  _99
REMARK   25  A    between atoms: _99  and  _100
REMARK   26  A    between atoms: _99  and  _102
REMARK   27  A    between atoms: _102  and  _103
REMARK   28  A    between atoms: _106  and  _108
REMARK   29  A    between atoms: _108  and  _109
REMARK   30  A    between atoms: _108  and  _111
REMARK   31  A    between atoms: _111  and  _112
REMARK   32  A    between atoms: _117  and  _118
REMARK   33  A    between atoms: _120  and  _122
REMARK   34  A    between atoms: _122  and  _123
REMARK   35  A    between atoms: _122  and  _125
REMARK   36  A    between atoms: _125  and  _126
REMARK   37  A    between atoms: _131  and  _133
REMARK   38  A    between atoms: _133  and  _134
REMARK   39  A    between atoms: _133  and  _136
REMARK   40  A    between atoms: _136  and  _137
REMARK   41  A    between atoms: _140  and  _142
REMARK   42  A    between atoms: _142  and  _143
REMARK   43  A    between atoms: _142  and  _145
REMARK   44  A    between atoms: _145  and  _146
REMARK   45  A    between atoms: _149  and  _151
REMARK   46  A    between atoms: _151  and  _152
REMARK   47  A    between atoms: _155  and  _157
REMARK   48  A    between atoms: _157  and  _158
REMARK   49  A    between atoms: _157  and  _160
REMARK   50  A    between atoms: _160  and  _161
REMARK   51  A    between atoms: _165  and  ZN_261
REMARK   52  A    between atoms: _166  and  _168
REMARK   53  A    between atoms: _168  and  _169
REMARK   54  A    between atoms: _168  and  _171
REMARK   55  A    between atoms: _173  and  _175
REMARK   56  A    between atoms: _175  and  _176
REMARK   57  A    between atoms: _175  and  _178
REMARK   58  A    between atoms: _178  and  _179
REMARK   59  A    between atoms: _181  and  _183
REMARK   60  A    between atoms: _183  and  _184
REMARK   61  A    between atoms: _186  and  _188
REMARK   62  A    between atoms: _188  and  _189
REMARK   63  A    between atoms: _188  and  _191
REMARK   64  A    between atoms: _191  and  _192
REMARK   65  A    between atoms: _195  and  _197
REMARK   66  A    between atoms: _197  and  _198
REMARK   67  A    between atoms: _197  and  _200
REMARK   68  A    between atoms: _203  and  _205
REMARK   69  A    between atoms: _205  and  _206
REMARK   70  A    between atoms: _209  and  _211
REMARK   71  A    between atoms: _211  and  _212
REMARK   72  A    between atoms: _211  and  _214
REMARK   73  A    between atoms: _214  and  _215
REMARK   74  A    between atoms: _218  and  _220
REMARK   75  A    between atoms: _220  and  _221
REMARK   76  A    between atoms: _220  and  _223
REMARK   77  A    between atoms: _223  and  _224
REMARK   78  A    between atoms: _229  and  _231
REMARK   79  A    between atoms: _231  and  _232
REMARK   80  A    between atoms: _231  and  _234
REMARK   81  A    between atoms: _234  and  _235
REMARK   82  A    between atoms: _240  and  _241
REMARK   83  A    between atoms: _244  and  _245
REMARK   84  A    between atoms: _250  and  _252
REMARK   85  A    between atoms: _252  and  _253
REMARK   86  A    between atoms: _252  and  _255
REMARK   87  A    between atoms: _255  and  _256
REMARK   88  A    between atoms: _260  and  ZN_262
REMARK                            x       y       z     vdW  Elec       q    Type
REMARK                         _______ _______ _______ _____ _____    ______ ____
ROOT
ATOM      1  CG  TYR A   1      12.201  10.348  -4.685  0.00  0.00    -0.020 A 
ATOM      2  CD2 TYR A   1      11.156  10.021  -3.849  0.00  0.00    -0.001 A 
ATOM      3  CE2 TYR A   1       9.851  10.351  -4.149  0.00  0.00    +0.036 A 
ATOM      4  CZ  TYR A   1       9.572  10.976  -5.357  0.00  0.00    +0.134 A 
ATOM      5  CE1 TYR A   1      10.613  11.303  -6.219  0.00  0.00    +0.036 A 
ATOM      6  CD1 TYR A   1      11.907  11.008  -5.893  0.00  0.00    -0.001 A 
ENDROOT
BRANCH   4   7
ATOM      7  OH  TYR A   1       8.275  11.279  -5.678  0.00  0.00    -0.506 OA
ATOM      8  HH  TYR A   1       8.030  10.824  -6.522  0.00  0.00    +0.292 HD
ENDBRANCH   4   7
BRANCH   1   9
ATOM      9  CB  TYR A   1      13.601   9.902  -4.353  0.00  0.00    +0.051 C 
BRANCH   9  10
ATOM     10  CA  TYR A   1      13.943   8.579  -5.055  0.00  0.00    +0.137 C 
BRANCH  10  11
ATOM     11  N   TYR A   1      15.115   7.933  -4.459  0.00  0.00    -0.239 NA
ATOM     12  H   TYR A   1      15.859   8.548  -4.072  0.00  0.00    +0.142 HD
ENDBRANCH  10  11
BRANCH  10  13
ATOM     13  C   TYR A   1      14.209   8.787  -6.554  0.00  0.00    +0.224 C 
ATOM     14  O   TYR A   1      15.222   9.404  -6.916  0.00  0.00    -0.287 OA
ENDBRANCH  10  13
ENDBRANCH   9  10
ENDBRANCH   1   9
TORSDOF 5
REMARK  Name = ../refined-set-2016/3m8t/3m8t_pocket.pdb
REMARK  88 active torsions:
REMARK  status: ('A' for Active; 'I' for Inactive)
REMARK    1  A    between atoms: _1  and  _3
REMARK    2  A    between atoms: _3  and  _4
REMARK    3  A    between atoms: _3  and  _6
REMARK    4  A    between atoms: _6  and  _7
REMARK    5  A    between atoms: _17  and  _19
REMARK    6  A    between atoms: _19  and  _20
REMARK    7  A    between atoms: _22  and  _24
REMARK    8  A    between atoms: _24  and  _25
REMARK    9  A    between atoms: _24  and  _27
REMARK   10  A    between atoms: _27  and  _28
REMARK   11  A    between atoms: _31  and  _33
REMARK   12  A    between atoms: _33  and  _34
REMARK   13  A    between atoms: _33  and  _36
REMARK   14  A    between atoms: _36  and  _37
REMARK   15  A    between atoms: _37  and  _38
REMARK   16  A    between atoms: _40  and  _42
REMARK   17  A    between atoms: _59  and  _60
REMARK   18  A    between atoms: _68  and  _70
REMARK   19  A    between atoms: _70  and  _71
REMARK   20  A    between atoms: _70  and  _73
REMARK   21  A    between atoms: _73  and  _74
REMARK   22  A    between atoms: _77  and  _79
REMARK   23  A    between atoms: _88  and  _89
REMARK   24  A    between atoms: _97  and  _99
REMARK   25  A    between atoms: _99  and  _100
REMARK   26  A    between atoms: _99  and  _102
REMARK   27  A    between atoms: _102  and  _103
REMARK   28  A    between atoms: _106  and  _108
REMARK   29  A    between atoms: _108  and  _109
REMARK   30  A    between atoms: _108  and  _111
REMARK   31  A    between atoms: _111  and  _112
REMARK   32  A    between atoms: _117  and  _118
REMARK   33  A    between atoms: _120  and  _122
REMARK   34  A    between atoms: _122  and  _123
REMARK   35  A    between atoms: _122  and  _125
REMARK   36  A    between atoms: _125  and  _126
REMARK   37  A    between atoms: _131  and  _133
REMARK   38  A    between atoms: _133  and  _134
REMARK   39  A    between atoms: _133  and  _136
REMARK   40  A    between atoms: _136  and  _137
REMARK   41  A    between atoms: _140  and  _142
REMARK   42  A    between atoms: _142  and  _143
REMARK   43  A    between atoms: _142  and  _145
REMARK   44  A    between atoms: _145  and  _146
REMARK   45  A    between atoms: _149  and  _151
REMARK   46  A    between atoms: _151  and  _152
REMARK   47  A    between atoms: _155  and  _157
REMARK   48  A    between atoms: _157  and  _158
REMARK   49  A    between atoms: _157  and  _160
REMARK   50  A    between atoms: _160  and  _161
REMARK   51  A    between atoms: _165  and  ZN_261
REMARK   52  A    between atoms: _166  and  _168
REMARK   53  A    between atoms: _168  and  _169
REMARK   54  A    between atoms: _168  and  _171
REMARK   55  A    between atoms: _173  and  _175
REMARK   56  A    between atoms: _175  and  _176
REMARK   57  A    between atoms: _175  and  _178
REMARK   58  A    between atoms: _178  and  _179
REMARK   59  A    between atoms: _181  and  _183
REMARK   60  A    between atoms: _183  and  _184
REMARK   61  A    between atoms: _186  and  _188
REMARK   62  A    between atoms: _188  and  _189
REMARK   63  A    between atoms: _188  and  _191
REMARK   64  A    between atoms: _191  and  _192
REMARK   65  A    between atoms: _195  and  _197
REMARK   66  A    between atoms: _197  and  _198
REMARK   67  A    between atoms: _197  and  _200
REMARK   68  A    between atoms: _203  and  _205
REMARK   69  A    between atoms: _205  and  _206
REMARK   70  A    between atoms: _209  and  _211
REMARK   71  A    between atoms: _211  and  _212
REMARK   72  A    between atoms: _211  and  _214
REMARK   73  A    between atoms: _214  and  _215
REMARK   74  A    between atoms: _218  and  _220
REMARK   75  A    between atoms: _220  and  _221
REMARK   76  A    between atoms: _220  and  _223
REMARK   77  A    between atoms: _223  and  _224
REMARK   78  A    between atoms: _229  and  _231
REMARK   79  A    between atoms: _231  and  _232
REMARK   80  A    between atoms: _231  and  _234
REMARK   81  A    between atoms: _234  and  _235
REMARK   82  A    between atoms: _240  and  _241
REMARK   83  A    between atoms: _244  and  _245
REMARK   84  A    between atoms: _250  and  _252
REMARK   85  A    between atoms: _252  and  _253
REMARK   86  A    between atoms: _252  and  _255
REMARK   87  A    between atoms: _255  and  _256
REMARK   88  A    between atoms: _260  and  ZN_262
REMARK                            x       y       z     vdW  Elec       q    Type
REMARK                         _______ _______ _______ _____ _____    ______ ____
ROOT
ATOM      1  CB  ASN A   1      17.266  13.826  -2.430  0.00  0.00    +0.110 C 
ENDROOT
BRANCH   1   2
ATOM      2  CG  ASN A   1      16.542  14.600  -1.362  0.00  0.00    +0.221 C 
ATOM      3  OD1 ASN A   1      16.822  14.498  -0.152  0.00  0.00    -0.275 OA
ATOM      4  ND2 ASN A   1      15.568  15.343  -1.794  0.00  0.00    -0.329 N 
ATOM      5 HD21 ASN A   1      14.987  15.882  -1.121  0.00  0.00    +0.145 HD
ATOM      6 HD22 ASN A   1      15.369  15.399  -2.813  0.00  0.00    +0.145 HD
ENDBRANCH   1   2
BRANCH   1   7
ATOM      7  CA  ASN A   1      18.651  13.344  -2.003  0.00  0.00    +0.142 C 
BRANCH   7   8
ATOM      8  N   ASN A   1      19.325  12.737  -3.165  0.00  0.00    -0.239 NA
ATOM      9  H   ASN A   1      18.754  12.355  -3.946  0.00  0.00    +0.142 HD
ENDBRANCH   7   8
BRANCH   7  10
ATOM     10  C   ASN A   1      18.547  12.344  -0.851  0.00  0.00    +0.225 C 
ATOM     11  O   ASN A   1      17.689  11.437  -0.855  0.00  0.00    -0.287 OA
ENDBRANCH   7  10
ENDBRANCH   1   7
TORSDOF 4
REMARK  Name = ../refined-set-2016/3m8t/3m8t_pocket.pdb
REMARK  88 active torsions:
REMARK  status: ('A' for Active; 'I' for Inactive)
REMARK    1  A    between atoms: _1  and  _3
REMARK    2  A    between atoms: _3  and  _4
REMARK    3  A    between atoms: _3  and  _6
REMARK    4  A    between atoms: _6  and  _7
REMARK    5  A    between atoms: _17  and  _19
REMARK    6  A    between atoms: _19  and  _20
REMARK    7  A    between atoms: _22  and  _24
REMARK    8  A    between atoms: _24  and  _25
REMARK    9  A    between atoms: _24  and  _27
REMARK   10  A    between atoms: _27  and  _28
REMARK   11  A    between atoms: _31  and  _33
REMARK   12  A    between atoms: _33  and  _34
REMARK   13  A    between atoms: _33  and  _36
REMARK   14  A    between atoms: _36  and  _37
REMARK   15  A    between atoms: _37  and  _38
REMARK   16  A    between atoms: _40  and  _42
REMARK   17  A    between atoms: _59  and  _60
REMARK   18  A    between atoms: _68  and  _70
REMARK   19  A    between atoms: _70  and  _71
REMARK   20  A    between atoms: _70  and  _73
REMARK   21  A    between atoms: _73  and  _74
REMARK   22  A    between atoms: _77  and  _79
REMARK   23  A    between atoms: _88  and  _89
REMARK   24  A    between atoms: _97  and  _99
REMARK   25  A    between atoms: _99  and  _100
REMARK   26  A    between atoms: _99  and  _102
REMARK   27  A    between atoms: _102  and  _103
REMARK   28  A    between atoms: _106  and  _108
REMARK   29  A    between atoms: _108  and  _109
REMARK   30  A    between atoms: _108  and  _111
REMARK   31  A    between atoms: _111  and  _112
REMARK   32  A    between atoms: _117  and  _118
REMARK   33  A    between atoms: _120  and  _122
REMARK   34  A    between atoms: _122  and  _123
REMARK   35  A    between atoms: _122  and  _125
REMARK   36  A    between atoms: _125  and  _126
REMARK   37  A    between atoms: _131  and  _133
REMARK   38  A    between atoms: _133  and  _134
REMARK   39  A    between atoms: _133  and  _136
REMARK   40  A    between atoms: _136  and  _137
REMARK   41  A    between atoms: _140  and  _142
REMARK   42  A    between atoms: _142  and  _143
REMARK   43  A    between atoms: _142  and  _145
REMARK   44  A    between atoms: _145  and  _146
REMARK   45  A    between atoms: _149  and  _151
REMARK   46  A    between atoms: _151  and  _152
REMARK   47  A    between atoms: _155  and  _157
REMARK   48  A    between atoms: _157  and  _158
REMARK   49  A    between atoms: _157  and  _160
REMARK   50  A    between atoms: _160  and  _161
REMARK   51  A    between atoms: _165  and  ZN_261
REMARK   52  A    between atoms: _166  and  _168
REMARK   53  A    between atoms: _168  and  _169
REMARK   54  A    between atoms: _168  and  _171
REMARK   55  A    between atoms: _173  and  _175
REMARK   56  A    between atoms: _175  and  _176
REMARK   57  A    between atoms: _175  and  _178
REMARK   58  A    between atoms: _178  and  _179
REMARK   59  A    between atoms: _181  and  _183
REMARK   60  A    between atoms: _183  and  _184
REMARK   61  A    between atoms: _186  and  _188
REMARK   62  A    between atoms: _188  and  _189
REMARK   63  A    between atoms: _188  and  _191
REMARK   64  A    between atoms: _191  and  _192
REMARK   65  A    between atoms: _195  and  _197
REMARK   66  A    between atoms: _197  and  _198
REMARK   67  A    between atoms: _197  and  _200
REMARK   68  A    between atoms: _203  and  _205
REMARK   69  A    between atoms: _205  and  _206
REMARK   70  A    between atoms: _209  and  _211
REMARK   71  A    between atoms: _211  and  _212
REMARK   72  A    between atoms: _211  and  _214
REMARK   73  A    between atoms: _214  and  _215
REMARK   74  A    between atoms: _218  and  _220
REMARK   75  A    between atoms: _220  and  _221
REMARK   76  A    between atoms: _220  and  _223
REMARK   77  A    between atoms: _223  and  _224
REMARK   78  A    between atoms: _229  and  _231
REMARK   79  A    between atoms: _231  and  _232
REMARK   80  A    between atoms: _231  and  _234
REMARK   81  A    between atoms: _234  and  _235
REMARK   82  A    between atoms: _240  and  _241
REMARK   83  A    between atoms: _244  and  _245
REMARK   84  A    between atoms: _250  and  _252
REMARK   85  A    between atoms: _252  and  _253
REMARK   86  A    between atoms: _252  and  _255
REMARK   87  A    between atoms: _255  and  _256
REMARK   88  A    between atoms: _260  and  ZN_262
REMARK                            x       y       z     vdW  Elec       q    Type
REMARK                         _______ _______ _______ _____ _____    ______ ____
ROOT
ATOM      1  CA  LEU A   2      14.394  10.440   0.564  0.00  0.00    +0.149 C 
ENDROOT
BRANCH   1   4
ATOM      2  C   ASP A   1      15.280  11.779   2.394  0.00  0.00    +0.239 C 
ATOM      3  O   ASP A   1      14.337  11.514   3.109  0.00  0.00    -0.274 OA
ATOM      4  N   LEU A   2      15.386  11.338   1.148  0.00  0.00    -0.297 N 
ATOM      5  H   LEU A   2      16.197  11.640   0.571  0.00  0.00    +0.150 HD
BRANCH   2   6
ATOM      6  CA  ASP A   1      16.421  12.627   2.954  0.00  0.00    +0.156 C 
BRANCH   6   7
ATOM      7  N   ASP A   1      17.606  12.581   2.141  0.00  0.00    -0.238 NA
ATOM      8  H   ASP A   1      17.888  13.420   1.594  0.00  0.00    +0.142 HD
ENDBRANCH   6   7
BRANCH   6   9
ATOM      9  CB  ASP A   1      15.992  14.030   3.279  0.00  0.00    +0.140 C 
BRANCH   9  10
ATOM     10  CG  ASP A   1      16.907  14.658   4.331  0.00  0.00    +0.367 C 
ATOM     11  OD2 ASP A   1      16.855  14.294   5.553  0.00  0.00    -0.246 OA
ATOM     12  OD1 ASP A   1      17.733  15.437   3.914  0.00  0.00    -0.246 OA
ENDBRANCH   9  10
ENDBRANCH   6   9
ENDBRANCH   2   6
ENDBRANCH   1   4
BRANCH   1  13
ATOM     13  C   LEU A   2      14.931   9.026   0.370  0.00  0.00    +0.241 C 
ATOM     14  N   ALA A   3      16.164   8.784   0.823  0.00  0.00    -0.298 N 
ATOM     15  H   ALA A   3      16.708   9.562   1.248  0.00  0.00    +0.150 HD
ATOM     16  O   LEU A   2      14.238   8.176  -0.196  0.00  0.00    -0.273 OA
BRANCH  14  17
ATOM     17  CA  ALA A   3      16.770   7.458   0.738  0.00  0.00    +0.137 C 
ATOM     18  CB  ALA A   3      18.307   7.552   0.911  0.00  0.00    +0.030 C 
BRANCH  17  19
ATOM     19  C   ALA A   3      16.173   6.513   1.776  0.00  0.00    +0.227 C 
ATOM     20  O   ALA A   3      15.585   6.942   2.767  0.00  0.00    -0.286 OA
ENDBRANCH  17  19
ENDBRANCH  14  17
ENDBRANCH   1  13
BRANCH   1  21
ATOM     21  CB  LEU A   2      13.908  11.007  -0.776  0.00  0.00    +0.029 C 
BRANCH  21  22
ATOM     22  CG  LEU A   2      13.309  12.404  -0.692  0.00  0.00    +0.002 C 
ATOM     23  CD2 LEU A   2      12.018  12.420   0.194  0.00  0.00    +0.000 C 
ATOM     24  CD1 LEU A   2      13.002  12.907  -2.112  0.00  0.00    +0.000 C 
ENDBRANCH  21  22
ENDBRANCH   1  21
TORSDOF 10
REMARK  Name = ../refined-set-2016/3m8t/3m8t_pocket.pdb
REMARK  88 active torsions:
REMARK  status: ('A' for Active; 'I' for Inactive)
REMARK    1  A    between atoms: _1  and  _3
REMARK    2  A    between atoms: _3  and  _4
REMARK    3  A    between atoms: _3  and  _6
REMARK    4  A    between atoms: _6  and  _7
REMARK    5  A    between atoms: _17  and  _19
REMARK    6  A    between atoms: _19  and  _20
REMARK    7  A    between atoms: _22  and  _24
REMARK    8  A    between atoms: _24  and  _25
REMARK    9  A    between atoms: _24  and  _27
REMARK   10  A    between atoms: _27  and  _28
REMARK   11  A    between atoms: _31  and  _33
REMARK   12  A    between atoms: _33  and  _34
REMARK   13  A    between atoms: _33  and  _36
REMARK   14  A    between atoms: _36  and  _37
REMARK   15  A    between atoms: _37  and  _38
REMARK   16  A    between atoms: _40  and  _42
REMARK   17  A    between atoms: _59  and  _60
REMARK   18  A    between atoms: _68  and  _70
REMARK   19  A    between atoms: _70  and  _71
REMARK   20  A    between atoms: _70  and  _73
REMARK   21  A    between atoms: _73  and  _74
REMARK   22  A    between atoms: _77  and  _79
REMARK   23  A    between atoms: _88  and  _89
REMARK   24  A    between atoms: _97  and  _99
REMARK   25  A    between atoms: _99  and  _100
REMARK   26  A    between atoms: _99  and  _102
REMARK   27  A    between atoms: _102  and  _103
REMARK   28  A    between atoms: _106  and  _108
REMARK   29  A    between atoms: _108  and  _109
REMARK   30  A    between atoms: _108  and  _111
REMARK   31  A    between atoms: _111  and  _112
REMARK   32  A    between atoms: _117  and  _118
REMARK   33  A    between atoms: _120  and  _122
REMARK   34  A    between atoms: _122  and  _123
REMARK   35  A    between atoms: _122  and  _125
REMARK   36  A    between atoms: _125  and  _126
REMARK   37  A    between atoms: _131  and  _133
REMARK   38  A    between atoms: _133  and  _134
REMARK   39  A    between atoms: _133  and  _136
REMARK   40  A    between atoms: _136  and  _137
REMARK   41  A    between atoms: _140  and  _142
REMARK   42  A    between atoms: _142  and  _143
REMARK   43  A    between atoms: _142  and  _145
REMARK   44  A    between atoms: _145  and  _146
REMARK   45  A    between atoms: _149  and  _151
REMARK   46  A    between atoms: _151  and  _152
REMARK   47  A    between atoms: _155  and  _157
REMARK   48  A    between atoms: _157  and  _158
REMARK   49  A    between atoms: _157  and  _160
REMARK   50  A    between atoms: _160  and  _161
REMARK   51  A    between atoms: _165  and  ZN_261
REMARK   52  A    between atoms: _166  and  _168
REMARK   53  A    between atoms: _168  and  _169
REMARK   54  A    between atoms: _168  and  _171
REMARK   55  A    between atoms: _173  and  _175
REMARK   56  A    between atoms: _175  and  _176
REMARK   57  A    between atoms: _175  and  _178
REMARK   58  A    between atoms: _178  and  _179
REMARK   59  A    between atoms: _181  and  _183
REMARK   60  A    between atoms: _183  and  _184
REMARK   61  A    between atoms: _186  and  _188
REMARK   62  A    between atoms: _188  and  _189
REMARK   63  A    between atoms: _188  and  _191
REMARK   64  A    between atoms: _191  and  _192
REMARK   65  A    between atoms: _195  and  _197
REMARK   66  A    between atoms: _197  and  _198
REMARK   67  A    between atoms: _197  and  _200
REMARK   68  A    between atoms: _203  and  _205
REMARK   69  A    between atoms: _205  and  _206
REMARK   70  A    between atoms: _209  and  _211
REMARK   71  A    between atoms: _211  and  _212
REMARK   72  A    between atoms: _211  and  _214
REMARK   73  A    between atoms: _214  and  _215
REMARK   74  A    between atoms: _218  and  _220
REMARK   75  A    between atoms: _220  and  _221
REMARK   76  A    between atoms: _220  and  _223
REMARK   77  A    between atoms: _223  and  _224
REMARK   78  A    between atoms: _229  and  _231
REMARK   79  A    between atoms: _231  and  _232
REMARK   80  A    between atoms: _231  and  _234
REMARK   81  A    between atoms: _234  and  _235
REMARK   82  A    between atoms: _240  and  _241
REMARK   83  A    between atoms: _244  and  _245
REMARK   84  A    between atoms: _250  and  _252
REMARK   85  A    between atoms: _252  and  _253
REMARK   86  A    between atoms: _252  and  _255
REMARK   87  A    between atoms: _255  and  _256
REMARK   88  A    between atoms: _260  and  ZN_262
REMARK                            x       y       z     vdW  Elec       q    Type
REMARK                         _______ _______ _______ _____ _____    ______ ____
ROOT
ATOM      1  CA  VAL A   5       1.519  14.009  -7.875  0.00  0.00    +0.149 C 
ENDROOT
BRANCH   1   2
ATOM      2  C   VAL A   5       2.655  14.140  -6.849  0.00  0.00    +0.241 C 
ATOM      3  N   ALA A   6       2.349  14.688  -5.688  0.00  0.00    -0.297 N 
ATOM      4  H   ALA A   6       1.399  15.092  -5.566  0.00  0.00    +0.150 HD
ATOM      5  O   VAL A   5       3.804  13.773  -7.133  0.00  0.00    -0.273 OA
BRANCH   3   6
ATOM      6  CA  ALA A   6       3.275  14.753  -4.575  0.00  0.00    +0.149 C 
ATOM      7  CB  ALA A   6       3.423  13.374  -3.929  0.00  0.00    +0.031 C 
BRANCH   6   8
ATOM      8  C   ALA A   6       4.590  15.363  -5.044  0.00  0.00    +0.241 C 
ATOM      9  N   LEU A   7       5.725  14.707  -4.808  0.00  0.00    -0.297 N 
ATOM     10  H   LEU A   7       5.689  13.764  -4.370  0.00  0.00    +0.150 HD
ATOM     11  O   ALA A   6       4.567  16.513  -5.571  0.00  0.00    -0.273 OA
BRANCH   9  12
ATOM     12  CA  LEU A   7       7.048  15.301  -5.161  0.00  0.00    +0.149 C 
BRANCH  12  13
ATOM     13  C   LEU A   7       7.447  15.105  -6.612  0.00  0.00    +0.241 C 
ATOM     14  O   LEU A   7       8.540  15.561  -7.033  0.00  0.00    -0.273 OA
ATOM     15  N   ASN A   8       6.614  14.434  -7.395  0.00  0.00    -0.298 N 
ATOM     16  H   ASN A   8       5.679  14.135  -7.051  0.00  0.00    +0.150 HD
BRANCH  15  17
ATOM     17  CA  ASN A   8       7.049  14.125  -8.761  0.00  0.00    +0.146 C 
BRANCH  17  18
ATOM     18  C   ASN A   8       7.057  15.347  -9.698  0.00  0.00    +0.227 C 
ATOM     19  O   ASN A   8       6.177  16.189  -9.637  0.00  0.00    -0.286 OA
ENDBRANCH  17  18
BRANCH  17  20
ATOM     20  CB  ASN A   8       6.210  13.004  -9.368  0.00  0.00    +0.112 C 
BRANCH  20  21
ATOM     21  CG  ASN A   8       6.429  11.671  -8.701  0.00  0.00    +0.222 C 
ATOM     22  OD1 ASN A   8       7.527  11.356  -8.237  0.00  0.00    -0.275 OA
ATOM     23  ND2 ASN A   8       5.385  10.853  -8.683  0.00  0.00    -0.329 N 
ATOM     24 HD21 ASN A   8       5.475   9.905  -8.266  0.00  0.00    +0.145 HD
ATOM     25 HD22 ASN A   8       4.477  11.160  -9.086  0.00  0.00    +0.145 HD
ENDBRANCH  20  21
ENDBRANCH  17  20
ENDBRANCH  15  17
ENDBRANCH  12  13
BRANCH  12  26
ATOM     26  CB  LEU A   7       8.151  14.703  -4.291  0.00  0.00    +0.029 C 
BRANCH  26  27
ATOM     27  CG  LEU A   7       7.977  14.791  -2.805  0.00  0.00    +0.002 C 
ATOM     28  CD2 LEU A   7       9.141  14.106  -2.132  0.00  0.00    +0.000 C 
ATOM     29  CD1 LEU A   7       7.873  16.261  -2.410  0.00  0.00    +0.000 C 
ENDBRANCH  26  27
ENDBRANCH  12  26
ENDBRANCH   9  12
ENDBRANCH   6   8
ENDBRANCH   3   6
ENDBRANCH   1   2
BRANCH   1  32
ATOM     30  C   THR A   4       0.207  12.194  -6.927  0.00  0.00    +0.243 C 
ATOM     31  O   THR A   4       1.071  11.358  -7.228  0.00  0.00    -0.273 OA
ATOM     32  N   VAL A   5       0.316  13.481  -7.234  0.00  0.00    -0.297 N 
ATOM     33  H   VAL A   5      -0.470  14.126  -7.014  0.00  0.00    +0.150 HD
BRANCH  30  34
ATOM     34  CA  THR A   4      -1.009  11.774  -6.116  0.00  0.00    +0.176 C 
BRANCH  34  36
ATOM     35  C   GLY A   3      -1.876   9.921  -7.441  0.00  0.00    +0.243 C 
ATOM     36  N   THR A   4      -1.285  10.374  -6.336  0.00  0.00    -0.295 N 
ATOM     37  H   THR A   4      -1.011   9.691  -5.601  0.00  0.00    +0.150 HD
ATOM     38  O   GLY A   3      -2.228  10.658  -8.357  0.00  0.00    -0.273 OA
BRANCH  35  39
ATOM     39  CA  GLY A   3      -2.108   8.416  -7.560  0.00  0.00    +0.176 C 
BRANCH  39  41
ATOM     40  C   SER A   2      -1.353   6.568  -6.174  0.00  0.00    +0.243 C 
ATOM     41  N   GLY A   3      -2.013   7.715  -6.302  0.00  0.00    -0.295 N 
ATOM     42  H   GLY A   3      -2.478   8.122  -5.465  0.00  0.00    +0.150 HD
ATOM     43  O   SER A   2      -0.726   6.040  -7.067  0.00  0.00    -0.273 OA
BRANCH  40  44
ATOM     44  CA  SER A   2      -1.371   5.966  -4.761  0.00  0.00    +0.178 C 
BRANCH  44  47
ATOM     45  C   CYS A   1      -0.588   3.564  -4.515  0.00  0.00    +0.239 C 
ATOM     46  O   CYS A   1       0.503   3.758  -4.037  0.00  0.00    -0.274 OA
ATOM     47  N   SER A   2      -1.476   4.496  -4.848  0.00  0.00    -0.295 N 
ATOM     48  H   SER A   2      -2.376   4.137  -5.225  0.00  0.00    +0.150 HD
BRANCH  45  49
ATOM     49  CA  CYS A   1      -0.968   2.131  -4.818  0.00  0.00    +0.156 C 
BRANCH  49  50
ATOM     50  N   CYS A   1      -2.404   1.910  -5.106  0.00  0.00    -0.237 NA
ATOM     51  H   CYS A   1      -2.739   1.853  -6.089  0.00  0.00    +0.142 HD
ENDBRANCH  49  50
BRANCH  49  52
ATOM     52  CB  CYS A   1      -0.119   1.605  -5.981  0.00  0.00    +0.095 C 
ATOM     53  SG  CYS A   1      -0.093   2.618  -7.425  0.00  0.00    -0.080 S 
ENDBRANCH  49  52
ENDBRANCH  45  49
ENDBRANCH  44  47
BRANCH  44  54
ATOM     54  CB  SER A   2      -0.155   6.502  -3.956  0.00  0.00    +0.166 C 
BRANCH  54  55
ATOM     55  OG  SER A   2      -0.234   6.252  -2.547  0.00  0.00    -0.380 OA
ATOM     56  H   SER A   2      -1.044   6.688  -2.180  0.00  0.00    +0.211 HD
ENDBRANCH  54  55
ENDBRANCH  44  54
ENDBRANCH  40  44
ENDBRANCH  39  41
ENDBRANCH  35  39
ENDBRANCH  34  36
BRANCH  34  57
ATOM     57  CB  THR A   4      -0.728  12.021  -4.652  0.00  0.00    +0.137 C 
ATOM     58  CG2 THR A   4      -2.003  11.774  -3.811  0.00  0.00    +0.034 C 
BRANCH  57  59
ATOM     59  OG1 THR A   4       0.360  11.184  -4.248  0.00  0.00    -0.382 OA
ATOM     60  HG1 THR A   4       0.554  11.337  -3.289  0.00  0.00    +0.210 HD
ENDBRANCH  57  59
ENDBRANCH  34  57
ENDBRANCH  30  34
ENDBRANCH   1  32
BRANCH   1  61
ATOM     61  CB  VAL A   5       1.233  15.365  -8.570  0.00  0.00    +0.027 C 
ATOM     62  CG2 VAL A   5       2.525  15.972  -9.114  0.00  0.00    +0.002 C 
ATOM     63  CG1 VAL A   5       0.246  15.138  -9.708  0.00  0.00    +0.002 C 
ENDBRANCH   1  61
TORSDOF 26
REMARK  Name = ../refined-set-2016/3m8t/3m8t_pocket.pdb
REMARK  88 active torsions:
REMARK  status: ('A' for Active; 'I' for Inactive)
REMARK    1  A    between atoms: _1  and  _3
REMARK    2  A    between atoms: _3  and  _4
REMARK    3  A    between atoms: _3  and  _6
REMARK    4  A    between atoms: _6  and  _7
REMARK    5  A    between atoms: _17  and  _19
REMARK    6  A    between atoms: _19  and  _20
REMARK    7  A    between atoms: _22  and  _24
REMARK    8  A    between atoms: _24  and  _25
REMARK    9  A    between atoms: _24  and  _27
REMARK   10  A    between atoms: _27  and  _28
REMARK   11  A    between atoms: _31  and  _33
REMARK   12  A    between atoms: _33  and  _34
REMARK   13  A    between atoms: _33  and  _36
REMARK   14  A    between atoms: _36  and  _37
REMARK   15  A    between atoms: _37  and  _38
REMARK   16  A    between atoms: _40  and  _42
REMARK   17  A    between atoms: _59  and  _60
REMARK   18  A    between atoms: _68  and  _70
REMARK   19  A    between atoms: _70  and  _71
REMARK   20  A    between atoms: _70  and  _73
REMARK   21  A    between atoms: _73  and  _74
REMARK   22  A    between atoms: _77  and  _79
REMARK   23  A    between atoms: _88  and  _89
REMARK   24  A    between atoms: _97  and  _99
REMARK   25  A    between atoms: _99  and  _100
REMARK   26  A    between atoms: _99  and  _102
REMARK   27  A    between atoms: _102  and  _103
REMARK   28  A    between atoms: _106  and  _108
REMARK   29  A    between atoms: _108  and  _109
REMARK   30  A    between atoms: _108  and  _111
REMARK   31  A    between atoms: _111  and  _112
REMARK   32  A    between atoms: _117  and  _118
REMARK   33  A    between atoms: _120  and  _122
REMARK   34  A    between atoms: _122  and  _123
REMARK   35  A    between atoms: _122  and  _125
REMARK   36  A    between atoms: _125  and  _126
REMARK   37  A    between atoms: _131  and  _133
REMARK   38  A    between atoms: _133  and  _134
REMARK   39  A    between atoms: _133  and  _136
REMARK   40  A    between atoms: _136  and  _137
REMARK   41  A    between atoms: _140  and  _142
REMARK   42  A    between atoms: _142  and  _143
REMARK   43  A    between atoms: _142  and  _145
REMARK   44  A    between atoms: _145  and  _146
REMARK   45  A    between atoms: _149  and  _151
REMARK   46  A    between atoms: _151  and  _152
REMARK   47  A    between atoms: _155  and  _157
REMARK   48  A    between atoms: _157  and  _158
REMARK   49  A    between atoms: _157  and  _160
REMARK   50  A    between atoms: _160  and  _161
REMARK   51  A    between atoms: _165  and  ZN_261
REMARK   52  A    between atoms: _166  and  _168
REMARK   53  A    between atoms: _168  and  _169
REMARK   54  A    between atoms: _168  and  _171
REMARK   55  A    between atoms: _173  and  _175
REMARK   56  A    between atoms: _175  and  _176
REMARK   57  A    between atoms: _175  and  _178
REMARK   58  A    between atoms: _178  and  _179
REMARK   59  A    between atoms: _181  and  _183
REMARK   60  A    between atoms: _183  and  _184
REMARK   61  A    between atoms: _186  and  _188
REMARK   62  A    between atoms: _188  and  _189
REMARK   63  A    between atoms: _188  and  _191
REMARK   64  A    between atoms: _191  and  _192
REMARK   65  A    between atoms: _195  and  _197
REMARK   66  A    between atoms: _197  and  _198
REMARK   67  A    between atoms: _197  and  _200
REMARK   68  A    between atoms: _203  and  _205
REMARK   69  A    between atoms: _205  and  _206
REMARK   70  A    between atoms: _209  and  _211
REMARK   71  A    between atoms: _211  and  _212
REMARK   72  A    between atoms: _211  and  _214
REMARK   73  A    between atoms: _214  and  _215
REMARK   74  A    between atoms: _218  and  _220
REMARK   75  A    between atoms: _220  and  _221
REMARK   76  A    between atoms: _220  and  _223
REMARK   77  A    between atoms: _223  and  _224
REMARK   78  A    between atoms: _229  and  _231
REMARK   79  A    between atoms: _231  and  _232
REMARK   80  A    between atoms: _231  and  _234
REMARK   81  A    between atoms: _234  and  _235
REMARK   82  A    between atoms: _240  and  _241
REMARK   83  A    between atoms: _244  and  _245
REMARK   84  A    between atoms: _250  and  _252
REMARK   85  A    between atoms: _252  and  _253
REMARK   86  A    between atoms: _252  and  _255
REMARK   87  A    between atoms: _255  and  _256
REMARK   88  A    between atoms: _260  and  ZN_262
REMARK                            x       y       z     vdW  Elec       q    Type
REMARK                         _______ _______ _______ _____ _____    ______ ____
ROOT
ATOM      1  CG  TYR A   1       0.222  10.432 -12.842  0.00  0.00    -0.020 A 
ATOM      2  CD2 TYR A   1      -0.332  10.303 -11.565  0.00  0.00    -0.001 A 
ATOM      3  CE2 TYR A   1       0.435  10.530 -10.394  0.00  0.00    +0.036 A 
ATOM      4  CZ  TYR A   1       1.756  10.912 -10.551  0.00  0.00    +0.134 A 
ATOM      5  CE1 TYR A   1       2.311  10.983 -11.803  0.00  0.00    +0.036 A 
ATOM      6  CD1 TYR A   1       1.551  10.779 -12.926  0.00  0.00    -0.001 A 
ENDROOT
BRANCH   4   7
ATOM      7  OH  TYR A   1       2.559  11.145  -9.481  0.00  0.00    -0.506 OA
ATOM      8  HH  TYR A   1       2.175  11.876  -8.935  0.00  0.00    +0.292 HD
ENDBRANCH   4   7
BRANCH   1   9
ATOM      9  CB  TYR A   1      -0.618  10.250 -14.090  0.00  0.00    +0.051 C 
BRANCH   9  10
ATOM     10  CA  TYR A   1      -0.925   8.828 -14.513  0.00  0.00    +0.137 C 
BRANCH  10  11
ATOM     11  N   TYR A   1       0.129   8.273 -15.385  0.00  0.00    -0.239 NA
ATOM     12  H   TYR A   1       0.976   8.839 -15.596  0.00  0.00    +0.142 HD
ENDBRANCH  10  11
BRANCH  10  13
ATOM     13  C   TYR A   1      -2.272   8.803 -15.176  0.00  0.00    +0.224 C 
ATOM     14  O   TYR A   1      -3.265   8.314 -14.586  0.00  0.00    -0.287 OA
ENDBRANCH  10  13
ENDBRANCH   9  10
ENDBRANCH   1   9
TORSDOF 5
REMARK  Name = ../refined-set-2016/3m8t/3m8t_pocket.pdb
REMARK  88 active torsions:
REMARK  status: ('A' for Active; 'I' for Inactive)
REMARK    1  A    between atoms: _1  and  _3
REMARK    2  A    between atoms: _3  and  _4
REMARK    3  A    between atoms: _3  and  _6
REMARK    4  A    between atoms: _6  and  _7
REMARK    5  A    between atoms: _17  and  _19
REMARK    6  A    between atoms: _19  and  _20
REMARK    7  A    between atoms: _22  and  _24
REMARK    8  A    between atoms: _24  and  _25
REMARK    9  A    between atoms: _24  and  _27
REMARK   10  A    between atoms: _27  and  _28
REMARK   11  A    between atoms: _31  and  _33
REMARK   12  A    between atoms: _33  and  _34
REMARK   13  A    between atoms: _33  and  _36
REMARK   14  A    between atoms: _36  and  _37
REMARK   15  A    between atoms: _37  and  _38
REMARK   16  A    between atoms: _40  and  _42
REMARK   17  A    between atoms: _59  and  _60
REMARK   18  A    between atoms: _68  and  _70
REMARK   19  A    between atoms: _70  and  _71
REMARK   20  A    between atoms: _70  and  _73
REMARK   21  A    between atoms: _73  and  _74
REMARK   22  A    between atoms: _77  and  _79
REMARK   23  A    between atoms: _88  and  _89
REMARK   24  A    between atoms: _97  and  _99
REMARK   25  A    between atoms: _99  and  _100
REMARK   26  A    between atoms: _99  and  _102
REMARK   27  A    between atoms: _102  and  _103
REMARK   28  A    between atoms: _106  and  _108
REMARK   29  A    between atoms: _108  and  _109
REMARK   30  A    between atoms: _108  and  _111
REMARK   31  A    between atoms: _111  and  _112
REMARK   32  A    between atoms: _117  and  _118
REMARK   33  A    between atoms: _120  and  _122
REMARK   34  A    between atoms: _122  and  _123
REMARK   35  A    between atoms: _122  and  _125
REMARK   36  A    between atoms: _125  and  _126
REMARK   37  A    between atoms: _131  and  _133
REMARK   38  A    between atoms: _133  and  _134
REMARK   39  A    between atoms: _133  and  _136
REMARK   40  A    between atoms: _136  and  _137
REMARK   41  A    between atoms: _140  and  _142
REMARK   42  A    between atoms: _142  and  _143
REMARK   43  A    between atoms: _142  and  _145
REMARK   44  A    between atoms: _145  and  _146
REMARK   45  A    between atoms: _149  and  _151
REMARK   46  A    between atoms: _151  and  _152
REMARK   47  A    between atoms: _155  and  _157
REMARK   48  A    between atoms: _157  and  _158
REMARK   49  A    between atoms: _157  and  _160
REMARK   50  A    between atoms: _160  and  _161
REMARK   51  A    between atoms: _165  and  ZN_261
REMARK   52  A    between atoms: _166  and  _168
REMARK   53  A    between atoms: _168  and  _169
REMARK   54  A    between atoms: _168  and  _171
REMARK   55  A    between atoms: _173  and  _175
REMARK   56  A    between atoms: _175  and  _176
REMARK   57  A    between atoms: _175  and  _178
REMARK   58  A    between atoms: _178  and  _179
REMARK   59  A    between atoms: _181  and  _183
REMARK   60  A    between atoms: _183  and  _184
REMARK   61  A    between atoms: _186  and  _188
REMARK   62  A    between atoms: _188  and  _189
REMARK   63  A    between atoms: _188  and  _191
REMARK   64  A    between atoms: _191  and  _192
REMARK   65  A    between atoms: _195  and  _197
REMARK   66  A    between atoms: _197  and  _198
REMARK   67  A    between atoms: _197  and  _200
REMARK   68  A    between atoms: _203  and  _205
REMARK   69  A    between atoms: _205  and  _206
REMARK   70  A    between atoms: _209  and  _211
REMARK   71  A    between atoms: _211  and  _212
REMARK   72  A    between atoms: _211  and  _214
REMARK   73  A    between atoms: _214  and  _215
REMARK   74  A    between atoms: _218  and  _220
REMARK   75  A    between atoms: _220  and  _221
REMARK   76  A    between atoms: _220  and  _223
REMARK   77  A    between atoms: _223  and  _224
REMARK   78  A    between atoms: _229  and  _231
REMARK   79  A    between atoms: _231  and  _232
REMARK   80  A    between atoms: _231  and  _234
REMARK   81  A    between atoms: _234  and  _235
REMARK   82  A    between atoms: _240  and  _241
REMARK   83  A    between atoms: _244  and  _245
REMARK   84  A    between atoms: _250  and  _252
REMARK   85  A    between atoms: _252  and  _253
REMARK   86  A    between atoms: _252  and  _255
REMARK   87  A    between atoms: _255  and  _256
REMARK   88  A    between atoms: _260  and  ZN_262
REMARK                            x       y       z     vdW  Elec       q    Type
REMARK                         _______ _______ _______ _____ _____    ______ ____
ROOT
ATOM      1  O   HOH     1       1.767   8.162  -1.486  0.00  0.00    +0.000 OA
ENDROOT
TORSDOF 0
REMARK  Name = ../refined-set-2016/3m8t/3m8t_pocket.pdb
REMARK  88 active torsions:
REMARK  status: ('A' for Active; 'I' for Inactive)
REMARK    1  A    between atoms: _1  and  _3
REMARK    2  A    between atoms: _3  and  _4
REMARK    3  A    between atoms: _3  and  _6
REMARK    4  A    between atoms: _6  and  _7
REMARK    5  A    between atoms: _17  and  _19
REMARK    6  A    between atoms: _19  and  _20
REMARK    7  A    between atoms: _22  and  _24
REMARK    8  A    between atoms: _24  and  _25
REMARK    9  A    between atoms: _24  and  _27
REMARK   10  A    between atoms: _27  and  _28
REMARK   11  A    between atoms: _31  and  _33
REMARK   12  A    between atoms: _33  and  _34
REMARK   13  A    between atoms: _33  and  _36
REMARK   14  A    between atoms: _36  and  _37
REMARK   15  A    between atoms: _37  and  _38
REMARK   16  A    between atoms: _40  and  _42
REMARK   17  A    between atoms: _59  and  _60
REMARK   18  A    between atoms: _68  and  _70
REMARK   19  A    between atoms: _70  and  _71
REMARK   20  A    between atoms: _70  and  _73
REMARK   21  A    between atoms: _73  and  _74
REMARK   22  A    between atoms: _77  and  _79
REMARK   23  A    between atoms: _88  and  _89
REMARK   24  A    between atoms: _97  and  _99
REMARK   25  A    between atoms: _99  and  _100
REMARK   26  A    between atoms: _99  and  _102
REMARK   27  A    between atoms: _102  and  _103
REMARK   28  A    between atoms: _106  and  _108
REMARK   29  A    between atoms: _108  and  _109
REMARK   30  A    between atoms: _108  and  _111
REMARK   31  A    between atoms: _111  and  _112
REMARK   32  A    between atoms: _117  and  _118
REMARK   33  A    between atoms: _120  and  _122
REMARK   34  A    between atoms: _122  and  _123
REMARK   35  A    between atoms: _122  and  _125
REMARK   36  A    between atoms: _125  and  _126
REMARK   37  A    between atoms: _131  and  _133
REMARK   38  A    between atoms: _133  and  _134
REMARK   39  A    between atoms: _133  and  _136
REMARK   40  A    between atoms: _136  and  _137
REMARK   41  A    between atoms: _140  and  _142
REMARK   42  A    between atoms: _142  and  _143
REMARK   43  A    between atoms: _142  and  _145
REMARK   44  A    between atoms: _145  and  _146
REMARK   45  A    between atoms: _149  and  _151
REMARK   46  A    between atoms: _151  and  _152
REMARK   47  A    between atoms: _155  and  _157
REMARK   48  A    between atoms: _157  and  _158
REMARK   49  A    between atoms: _157  and  _160
REMARK   50  A    between atoms: _160  and  _161
REMARK   51  A    between atoms: _165  and  ZN_261
REMARK   52  A    between atoms: _166  and  _168
REMARK   53  A    between atoms: _168  and  _169
REMARK   54  A    between atoms: _168  and  _171
REMARK   55  A    between atoms: _173  and  _175
REMARK   56  A    between atoms: _175  and  _176
REMARK   57  A    between atoms: _175  and  _178
REMARK   58  A    between atoms: _178  and  _179
REMARK   59  A    between atoms: _181  and  _183
REMARK   60  A    between atoms: _183  and  _184
REMARK   61  A    between atoms: _186  and  _188
REMARK   62  A    between atoms: _188  and  _189
REMARK   63  A    between atoms: _188  and  _191
REMARK   64  A    between atoms: _191  and  _192
REMARK   65  A    between atoms: _195  and  _197
REMARK   66  A    between atoms: _197  and  _198
REMARK   67  A    between atoms: _197  and  _200
REMARK   68  A    between atoms: _203  and  _205
REMARK   69  A    between atoms: _205  and  _206
REMARK   70  A    between atoms: _209  and  _211
REMARK   71  A    between atoms: _211  and  _212
REMARK   72  A    between atoms: _211  and  _214
REMARK   73  A    between atoms: _214  and  _215
REMARK   74  A    between atoms: _218  and  _220
REMARK   75  A    between atoms: _220  and  _221
REMARK   76  A    between atoms: _220  and  _223
REMARK   77  A    between atoms: _223  and  _224
REMARK   78  A    between atoms: _229  and  _231
REMARK   79  A    between atoms: _231  and  _232
REMARK   80  A    between atoms: _231  and  _234
REMARK   81  A    between atoms: _234  and  _235
REMARK   82  A    between atoms: _240  and  _241
REMARK   83  A    between atoms: _244  and  _245
REMARK   84  A    between atoms: _250  and  _252
REMARK   85  A    between atoms: _252  and  _253
REMARK   86  A    between atoms: _252  and  _255
REMARK   87  A    between atoms: _255  and  _256
REMARK   88  A    between atoms: _260  and  ZN_262
REMARK                            x       y       z     vdW  Elec       q    Type
REMARK                         _______ _______ _______ _____ _____    ______ ____
ROOT
ATOM      1  O   HOH     1       8.102   8.518  -7.910  0.00  0.00    +0.000 OA
ENDROOT
TORSDOF 0
REMARK  Name = ../refined-set-2016/3m8t/3m8t_pocket.pdb
REMARK  88 active torsions:
REMARK  status: ('A' for Active; 'I' for Inactive)
REMARK    1  A    between atoms: _1  and  _3
REMARK    2  A    between atoms: _3  and  _4
REMARK    3  A    between atoms: _3  and  _6
REMARK    4  A    between atoms: _6  and  _7
REMARK    5  A    between atoms: _17  and  _19
REMARK    6  A    between atoms: _19  and  _20
REMARK    7  A    between atoms: _22  and  _24
REMARK    8  A    between atoms: _24  and  _25
REMARK    9  A    between atoms: _24  and  _27
REMARK   10  A    between atoms: _27  and  _28
REMARK   11  A    between atoms: _31  and  _33
REMARK   12  A    between atoms: _33  and  _34
REMARK   13  A    between atoms: _33  and  _36
REMARK   14  A    between atoms: _36  and  _37
REMARK   15  A    between atoms: _37  and  _38
REMARK   16  A    between atoms: _40  and  _42
REMARK   17  A    between atoms: _59  and  _60
REMARK   18  A    between atoms: _68  and  _70
REMARK   19  A    between atoms: _70  and  _71
REMARK   20  A    between atoms: _70  and  _73
REMARK   21  A    between atoms: _73  and  _74
REMARK   22  A    between atoms: _77  and  _79
REMARK   23  A    between atoms: _88  and  _89
REMARK   24  A    between atoms: _97  and  _99
REMARK   25  A    between atoms: _99  and  _100
REMARK   26  A    between atoms: _99  and  _102
REMARK   27  A    between atoms: _102  and  _103
REMARK   28  A    between atoms: _106  and  _108
REMARK   29  A    between atoms: _108  and  _109
REMARK   30  A    between atoms: _108  and  _111
REMARK   31  A    between atoms: _111  and  _112
REMARK   32  A    between atoms: _117  and  _118
REMARK   33  A    between atoms: _120  and  _122
REMARK   34  A    between atoms: _122  and  _123
REMARK   35  A    between atoms: _122  and  _125
REMARK   36  A    between atoms: _125  and  _126
REMARK   37  A    between atoms: _131  and  _133
REMARK   38  A    between atoms: _133  and  _134
REMARK   39  A    between atoms: _133  and  _136
REMARK   40  A    between atoms: _136  and  _137
REMARK   41  A    between atoms: _140  and  _142
REMARK   42  A    between atoms: _142  and  _143
REMARK   43  A    between atoms: _142  and  _145
REMARK   44  A    between atoms: _145  and  _146
REMARK   45  A    between atoms: _149  and  _151
REMARK   46  A    between atoms: _151  and  _152
REMARK   47  A    between atoms: _155  and  _157
REMARK   48  A    between atoms: _157  and  _158
REMARK   49  A    between atoms: _157  and  _160
REMARK   50  A    between atoms: _160  and  _161
REMARK   51  A    between atoms: _165  and  ZN_261
REMARK   52  A    between atoms: _166  and  _168
REMARK   53  A    between atoms: _168  and  _169
REMARK   54  A    between atoms: _168  and  _171
REMARK   55  A    between atoms: _173  and  _175
REMARK   56  A    between atoms: _175  and  _176
REMARK   57  A    between atoms: _175  and  _178
REMARK   58  A    between atoms: _178  and  _179
REMARK   59  A    between atoms: _181  and  _183
REMARK   60  A    between atoms: _183  and  _184
REMARK   61  A    between atoms: _186  and  _188
REMARK   62  A    between atoms: _188  and  _189
REMARK   63  A    between atoms: _188  and  _191
REMARK   64  A    between atoms: _191  and  _192
REMARK   65  A    between atoms: _195  and  _197
REMARK   66  A    between atoms: _197  and  _198
REMARK   67  A    between atoms: _197  and  _200
REMARK   68  A    between atoms: _203  and  _205
REMARK   69  A    between atoms: _205  and  _206
REMARK   70  A    between atoms: _209  and  _211
REMARK   71  A    between atoms: _211  and  _212
REMARK   72  A    between atoms: _211  and  _214
REMARK   73  A    between atoms: _214  and  _215
REMARK   74  A    between atoms: _218  and  _220
REMARK   75  A    between atoms: _220  and  _221
REMARK   76  A    between atoms: _220  and  _223
REMARK   77  A    between atoms: _223  and  _224
REMARK   78  A    between atoms: _229  and  _231
REMARK   79  A    between atoms: _231  and  _232
REMARK   80  A    between atoms: _231  and  _234
REMARK   81  A    between atoms: _234  and  _235
REMARK   82  A    between atoms: _240  and  _241
REMARK   83  A    between atoms: _244  and  _245
REMARK   84  A    between atoms: _250  and  _252
REMARK   85  A    between atoms: _252  and  _253
REMARK   86  A    between atoms: _252  and  _255
REMARK   87  A    between atoms: _255  and  _256
REMARK   88  A    between atoms: _260  and  ZN_262
REMARK                            x       y       z     vdW  Elec       q    Type
REMARK                         _______ _______ _______ _____ _____    ______ ____
ROOT
ATOM      1  O   HOH     1      11.862   7.518  -1.371  0.00  0.00    +0.000 OA
ENDROOT
TORSDOF 0
REMARK  Name = ../refined-set-2016/3m8t/3m8t_pocket.pdb
REMARK  88 active torsions:
REMARK  status: ('A' for Active; 'I' for Inactive)
REMARK    1  A    between atoms: _1  and  _3
REMARK    2  A    between atoms: _3  and  _4
REMARK    3  A    between atoms: _3  and  _6
REMARK    4  A    between atoms: _6  and  _7
REMARK    5  A    between atoms: _17  and  _19
REMARK    6  A    between atoms: _19  and  _20
REMARK    7  A    between atoms: _22  and  _24
REMARK    8  A    between atoms: _24  and  _25
REMARK    9  A    between atoms: _24  and  _27
REMARK   10  A    between atoms: _27  and  _28
REMARK   11  A    between atoms: _31  and  _33
REMARK   12  A    between atoms: _33  and  _34
REMARK   13  A    between atoms: _33  and  _36
REMARK   14  A    between atoms: _36  and  _37
REMARK   15  A    between atoms: _37  and  _38
REMARK   16  A    between atoms: _40  and  _42
REMARK   17  A    between atoms: _59  and  _60
REMARK   18  A    between atoms: _68  and  _70
REMARK   19  A    between atoms: _70  and  _71
REMARK   20  A    between atoms: _70  and  _73
REMARK   21  A    between atoms: _73  and  _74
REMARK   22  A    between atoms: _77  and  _79
REMARK   23  A    between atoms: _88  and  _89
REMARK   24  A    between atoms: _97  and  _99
REMARK   25  A    between atoms: _99  and  _100
REMARK   26  A    between atoms: _99  and  _102
REMARK   27  A    between atoms: _102  and  _103
REMARK   28  A    between atoms: _106  and  _108
REMARK   29  A    between atoms: _108  and  _109
REMARK   30  A    between atoms: _108  and  _111
REMARK   31  A    between atoms: _111  and  _112
REMARK   32  A    between atoms: _117  and  _118
REMARK   33  A    between atoms: _120  and  _122
REMARK   34  A    between atoms: _122  and  _123
REMARK   35  A    between atoms: _122  and  _125
REMARK   36  A    between atoms: _125  and  _126
REMARK   37  A    between atoms: _131  and  _133
REMARK   38  A    between atoms: _133  and  _134
REMARK   39  A    between atoms: _133  and  _136
REMARK   40  A    between atoms: _136  and  _137
REMARK   41  A    between atoms: _140  and  _142
REMARK   42  A    between atoms: _142  and  _143
REMARK   43  A    between atoms: _142  and  _145
REMARK   44  A    between atoms: _145  and  _146
REMARK   45  A    between atoms: _149  and  _151
REMARK   46  A    between atoms: _151  and  _152
REMARK   47  A    between atoms: _155  and  _157
REMARK   48  A    between atoms: _157  and  _158
REMARK   49  A    between atoms: _157  and  _160
REMARK   50  A    between atoms: _160  and  _161
REMARK   51  A    between atoms: _165  and  ZN_261
REMARK   52  A    between atoms: _166  and  _168
REMARK   53  A    between atoms: _168  and  _169
REMARK   54  A    between atoms: _168  and  _171
REMARK   55  A    between atoms: _173  and  _175
REMARK   56  A    between atoms: _175  and  _176
REMARK   57  A    between atoms: _175  and  _178
REMARK   58  A    between atoms: _178  and  _179
REMARK   59  A    between atoms: _181  and  _183
REMARK   60  A    between atoms: _183  and  _184
REMARK   61  A    between atoms: _186  and  _188
REMARK   62  A    between atoms: _188  and  _189
REMARK   63  A    between atoms: _188  and  _191
REMARK   64  A    between atoms: _191  and  _192
REMARK   65  A    between atoms: _195  and  _197
REMARK   66  A    between atoms: _197  and  _198
REMARK   67  A    between atoms: _197  and  _200
REMARK   68  A    between atoms: _203  and  _205
REMARK   69  A    between atoms: _205  and  _206
REMARK   70  A    between atoms: _209  and  _211
REMARK   71  A    between atoms: _211  and  _212
REMARK   72  A    between atoms: _211  and  _214
REMARK   73  A    between atoms: _214  and  _215
REMARK   74  A    between atoms: _218  and  _220
REMARK   75  A    between atoms: _220  and  _221
REMARK   76  A    between atoms: _220  and  _223
REMARK   77  A    between atoms: _223  and  _224
REMARK   78  A    between atoms: _229  and  _231
REMARK   79  A    between atoms: _231  and  _232
REMARK   80  A    between atoms: _231  and  _234
REMARK   81  A    between atoms: _234  and  _235
REMARK   82  A    between atoms: _240  and  _241
REMARK   83  A    between atoms: _244  and  _245
REMARK   84  A    between atoms: _250  and  _252
REMARK   85  A    between atoms: _252  and  _253
REMARK   86  A    between atoms: _252  and  _255
REMARK   87  A    between atoms: _255  and  _256
REMARK   88  A    between atoms: _260  and  ZN_262
REMARK                            x       y       z     vdW  Elec       q    Type
REMARK                         _______ _______ _______ _____ _____    ______ ____
ROOT
ATOM      1  O   HOH     1      11.981   6.191  -3.803  0.00  0.00    +0.000 OA
ENDROOT
TORSDOF 0
REMARK  Name = ../refined-set-2016/3m8t/3m8t_pocket.pdb
REMARK  88 active torsions:
REMARK  status: ('A' for Active; 'I' for Inactive)
REMARK    1  A    between atoms: _1  and  _3
REMARK    2  A    between atoms: _3  and  _4
REMARK    3  A    between atoms: _3  and  _6
REMARK    4  A    between atoms: _6  and  _7
REMARK    5  A    between atoms: _17  and  _19
REMARK    6  A    between atoms: _19  and  _20
REMARK    7  A    between atoms: _22  and  _24
REMARK    8  A    between atoms: _24  and  _25
REMARK    9  A    between atoms: _24  and  _27
REMARK   10  A    between atoms: _27  and  _28
REMARK   11  A    between atoms: _31  and  _33
REMARK   12  A    between atoms: _33  and  _34
REMARK   13  A    between atoms: _33  and  _36
REMARK   14  A    between atoms: _36  and  _37
REMARK   15  A    between atoms: _37  and  _38
REMARK   16  A    between atoms: _40  and  _42
REMARK   17  A    between atoms: _59  and  _60
REMARK   18  A    between atoms: _68  and  _70
REMARK   19  A    between atoms: _70  and  _71
REMARK   20  A    between atoms: _70  and  _73
REMARK   21  A    between atoms: _73  and  _74
REMARK   22  A    between atoms: _77  and  _79
REMARK   23  A    between atoms: _88  and  _89
REMARK   24  A    between atoms: _97  and  _99
REMARK   25  A    between atoms: _99  and  _100
REMARK   26  A    between atoms: _99  and  _102
REMARK   27  A    between atoms: _102  and  _103
REMARK   28  A    between atoms: _106  and  _108
REMARK   29  A    between atoms: _108  and  _109
REMARK   30  A    between atoms: _108  and  _111
REMARK   31  A    between atoms: _111  and  _112
REMARK   32  A    between atoms: _117  and  _118
REMARK   33  A    between atoms: _120  and  _122
REMARK   34  A    between atoms: _122  and  _123
REMARK   35  A    between atoms: _122  and  _125
REMARK   36  A    between atoms: _125  and  _126
REMARK   37  A    between atoms: _131  and  _133
REMARK   38  A    between atoms: _133  and  _134
REMARK   39  A    between atoms: _133  and  _136
REMARK   40  A    between atoms: _136  and  _137
REMARK   41  A    between atoms: _140  and  _142
REMARK   42  A    between atoms: _142  and  _143
REMARK   43  A    between atoms: _142  and  _145
REMARK   44  A    between atoms: _145  and  _146
REMARK   45  A    between atoms: _149  and  _151
REMARK   46  A    between atoms: _151  and  _152
REMARK   47  A    between atoms: _155  and  _157
REMARK   48  A    between atoms: _157  and  _158
REMARK   49  A    between atoms: _157  and  _160
REMARK   50  A    between atoms: _160  and  _161
REMARK   51  A    between atoms: _165  and  ZN_261
REMARK   52  A    between atoms: _166  and  _168
REMARK   53  A    between atoms: _168  and  _169
REMARK   54  A    between atoms: _168  and  _171
REMARK   55  A    between atoms: _173  and  _175
REMARK   56  A    between atoms: _175  and  _176
REMARK   57  A    between atoms: _175  and  _178
REMARK   58  A    between atoms: _178  and  _179
REMARK   59  A    between atoms: _181  and  _183
REMARK   60  A    between atoms: _183  and  _184
REMARK   61  A    between atoms: _186  and  _188
REMARK   62  A    between atoms: _188  and  _189
REMARK   63  A    between atoms: _188  and  _191
REMARK   64  A    between atoms: _191  and  _192
REMARK   65  A    between atoms: _195  and  _197
REMARK   66  A    between atoms: _197  and  _198
REMARK   67  A    between atoms: _197  and  _200
REMARK   68  A    between atoms: _203  and  _205
REMARK   69  A    between atoms: _205  and  _206
REMARK   70  A    between atoms: _209  and  _211
REMARK   71  A    between atoms: _211  and  _212
REMARK   72  A    between atoms: _211  and  _214
REMARK   73  A    between atoms: _214  and  _215
REMARK   74  A    between atoms: _218  and  _220
REMARK   75  A    between atoms: _220  and  _221
REMARK   76  A    between atoms: _220  and  _223
REMARK   77  A    between atoms: _223  and  _224
REMARK   78  A    between atoms: _229  and  _231
REMARK   79  A    between atoms: _231  and  _232
REMARK   80  A    between atoms: _231  and  _234
REMARK   81  A    between atoms: _234  and  _235
REMARK   82  A    between atoms: _240  and  _241
REMARK   83  A    between atoms: _244  and  _245
REMARK   84  A    between atoms: _250  and  _252
REMARK   85  A    between atoms: _252  and  _253
REMARK   86  A    between atoms: _252  and  _255
REMARK   87  A    between atoms: _255  and  _256
REMARK   88  A    between atoms: _260  and  ZN_262
REMARK                            x       y       z     vdW  Elec       q    Type
REMARK                         _______ _______ _______ _____ _____    ______ ____
ROOT
ATOM      1  O   HOH     1      -3.262   8.441  -3.802  0.00  0.00    +0.000 OA
ENDROOT
TORSDOF 0
REMARK  Name = ../refined-set-2016/3m8t/3m8t_pocket.pdb
REMARK  88 active torsions:
REMARK  status: ('A' for Active; 'I' for Inactive)
REMARK    1  A    between atoms: _1  and  _3
REMARK    2  A    between atoms: _3  and  _4
REMARK    3  A    between atoms: _3  and  _6
REMARK    4  A    between atoms: _6  and  _7
REMARK    5  A    between atoms: _17  and  _19
REMARK    6  A    between atoms: _19  and  _20
REMARK    7  A    between atoms: _22  and  _24
REMARK    8  A    between atoms: _24  and  _25
REMARK    9  A    between atoms: _24  and  _27
REMARK   10  A    between atoms: _27  and  _28
REMARK   11  A    between atoms: _31  and  _33
REMARK   12  A    between atoms: _33  and  _34
REMARK   13  A    between atoms: _33  and  _36
REMARK   14  A    between atoms: _36  and  _37
REMARK   15  A    between atoms: _37  and  _38
REMARK   16  A    between atoms: _40  and  _42
REMARK   17  A    between atoms: _59  and  _60
REMARK   18  A    between atoms: _68  and  _70
REMARK   19  A    between atoms: _70  and  _71
REMARK   20  A    between atoms: _70  and  _73
REMARK   21  A    between atoms: _73  and  _74
REMARK   22  A    between atoms: _77  and  _79
REMARK   23  A    between atoms: _88  and  _89
REMARK   24  A    between atoms: _97  and  _99
REMARK   25  A    between atoms: _99  and  _100
REMARK   26  A    between atoms: _99  and  _102
REMARK   27  A    between atoms: _102  and  _103
REMARK   28  A    between atoms: _106  and  _108
REMARK   29  A    between atoms: _108  and  _109
REMARK   30  A    between atoms: _108  and  _111
REMARK   31  A    between atoms: _111  and  _112
REMARK   32  A    between atoms: _117  and  _118
REMARK   33  A    between atoms: _120  and  _122
REMARK   34  A    between atoms: _122  and  _123
REMARK   35  A    between atoms: _122  and  _125
REMARK   36  A    between atoms: _125  and  _126
REMARK   37  A    between atoms: _131  and  _133
REMARK   38  A    between atoms: _133  and  _134
REMARK   39  A    between atoms: _133  and  _136
REMARK   40  A    between atoms: _136  and  _137
REMARK   41  A    between atoms: _140  and  _142
REMARK   42  A    between atoms: _142  and  _143
REMARK   43  A    between atoms: _142  and  _145
REMARK   44  A    between atoms: _145  and  _146
REMARK   45  A    between atoms: _149  and  _151
REMARK   46  A    between atoms: _151  and  _152
REMARK   47  A    between atoms: _155  and  _157
REMARK   48  A    between atoms: _157  and  _158
REMARK   49  A    between atoms: _157  and  _160
REMARK   50  A    between atoms: _160  and  _161
REMARK   51  A    between atoms: _165  and  ZN_261
REMARK   52  A    between atoms: _166  and  _168
REMARK   53  A    between atoms: _168  and  _169
REMARK   54  A    between atoms: _168  and  _171
REMARK   55  A    between atoms: _173  and  _175
REMARK   56  A    between atoms: _175  and  _176
REMARK   57  A    between atoms: _175  and  _178
REMARK   58  A    between atoms: _178  and  _179
REMARK   59  A    between atoms: _181  and  _183
REMARK   60  A    between atoms: _183  and  _184
REMARK   61  A    between atoms: _186  and  _188
REMARK   62  A    between atoms: _188  and  _189
REMARK   63  A    between atoms: _188  and  _191
REMARK   64  A    between atoms: _191  and  _192
REMARK   65  A    between atoms: _195  and  _197
REMARK   66  A    between atoms: _197  and  _198
REMARK   67  A    between atoms: _197  and  _200
REMARK   68  A    between atoms: _203  and  _205
REMARK   69  A    between atoms: _205  and  _206
REMARK   70  A    between atoms: _209  and  _211
REMARK   71  A    between atoms: _211  and  _212
REMARK   72  A    between atoms: _211  and  _214
REMARK   73  A    between atoms: _214  and  _215
REMARK   74  A    between atoms: _218  and  _220
REMARK   75  A    between atoms: _220  and  _221
REMARK   76  A    between atoms: _220  and  _223
REMARK   77  A    between atoms: _223  and  _224
REMARK   78  A    between atoms: _229  and  _231
REMARK   79  A    between atoms: _231  and  _232
REMARK   80  A    between atoms: _231  and  _234
REMARK   81  A    between atoms: _234  and  _235
REMARK   82  A    between atoms: _240  and  _241
REMARK   83  A    between atoms: _244  and  _245
REMARK   84  A    between atoms: _250  and  _252
REMARK   85  A    between atoms: _252  and  _253
REMARK   86  A    between atoms: _252  and  _255
REMARK   87  A    between atoms: _255  and  _256
REMARK   88  A    between atoms: _260  and  ZN_262
REMARK                            x       y       z     vdW  Elec       q    Type
REMARK                         _______ _______ _______ _____ _____    ______ ____
ROOT
ATOM      1  O   HOH     1       6.172  11.978  -3.976  0.00  0.00    +0.000 OA
ENDROOT
TORSDOF 0
REMARK  Name = ../refined-set-2016/3m8t/3m8t_pocket.pdb
REMARK  88 active torsions:
REMARK  status: ('A' for Active; 'I' for Inactive)
REMARK    1  A    between atoms: _1  and  _3
REMARK    2  A    between atoms: _3  and  _4
REMARK    3  A    between atoms: _3  and  _6
REMARK    4  A    between atoms: _6  and  _7
REMARK    5  A    between atoms: _17  and  _19
REMARK    6  A    between atoms: _19  and  _20
REMARK    7  A    between atoms: _22  and  _24
REMARK    8  A    between atoms: _24  and  _25
REMARK    9  A    between atoms: _24  and  _27
REMARK   10  A    between atoms: _27  and  _28
REMARK   11  A    between atoms: _31  and  _33
REMARK   12  A    between atoms: _33  and  _34
REMARK   13  A    between atoms: _33  and  _36
REMARK   14  A    between atoms: _36  and  _37
REMARK   15  A    between atoms: _37  and  _38
REMARK   16  A    between atoms: _40  and  _42
REMARK   17  A    between atoms: _59  and  _60
REMARK   18  A    between atoms: _68  and  _70
REMARK   19  A    between atoms: _70  and  _71
REMARK   20  A    between atoms: _70  and  _73
REMARK   21  A    between atoms: _73  and  _74
REMARK   22  A    between atoms: _77  and  _79
REMARK   23  A    between atoms: _88  and  _89
REMARK   24  A    between atoms: _97  and  _99
REMARK   25  A    between atoms: _99  and  _100
REMARK   26  A    between atoms: _99  and  _102
REMARK   27  A    between atoms: _102  and  _103
REMARK   28  A    between atoms: _106  and  _108
REMARK   29  A    between atoms: _108  and  _109
REMARK   30  A    between atoms: _108  and  _111
REMARK   31  A    between atoms: _111  and  _112
REMARK   32  A    between atoms: _117  and  _118
REMARK   33  A    between atoms: _120  and  _122
REMARK   34  A    between atoms: _122  and  _123
REMARK   35  A    between atoms: _122  and  _125
REMARK   36  A    between atoms: _125  and  _126
REMARK   37  A    between atoms: _131  and  _133
REMARK   38  A    between atoms: _133  and  _134
REMARK   39  A    between atoms: _133  and  _136
REMARK   40  A    between atoms: _136  and  _137
REMARK   41  A    between atoms: _140  and  _142
REMARK   42  A    between atoms: _142  and  _143
REMARK   43  A    between atoms: _142  and  _145
REMARK   44  A    between atoms: _145  and  _146
REMARK   45  A    between atoms: _149  and  _151
REMARK   46  A    between atoms: _151  and  _152
REMARK   47  A    between atoms: _155  and  _157
REMARK   48  A    between atoms: _157  and  _158
REMARK   49  A    between atoms: _157  and  _160
REMARK   50  A    between atoms: _160  and  _161
REMARK   51  A    between atoms: _165  and  ZN_261
REMARK   52  A    between atoms: _166  and  _168
REMARK   53  A    between atoms: _168  and  _169
REMARK   54  A    between atoms: _168  and  _171
REMARK   55  A    between atoms: _173  and  _175
REMARK   56  A    between atoms: _175  and  _176
REMARK   57  A    between atoms: _175  and  _178
REMARK   58  A    between atoms: _178  and  _179
REMARK   59  A    between atoms: _181  and  _183
REMARK   60  A    between atoms: _183  and  _184
REMARK   61  A    between atoms: _186  and  _188
REMARK   62  A    between atoms: _188  and  _189
REMARK   63  A    between atoms: _188  and  _191
REMARK   64  A    between atoms: _191  and  _192
REMARK   65  A    between atoms: _195  and  _197
REMARK   66  A    between atoms: _197  and  _198
REMARK   67  A    between atoms: _197  and  _200
REMARK   68  A    between atoms: _203  and  _205
REMARK   69  A    between atoms: _205  and  _206
REMARK   70  A    between atoms: _209  and  _211
REMARK   71  A    between atoms: _211  and  _212
REMARK   72  A    between atoms: _211  and  _214
REMARK   73  A    between atoms: _214  and  _215
REMARK   74  A    between atoms: _218  and  _220
REMARK   75  A    between atoms: _220  and  _221
REMARK   76  A    between atoms: _220  and  _223
REMARK   77  A    between atoms: _223  and  _224
REMARK   78  A    between atoms: _229  and  _231
REMARK   79  A    between atoms: _231  and  _232
REMARK   80  A    between atoms: _231  and  _234
REMARK   81  A    between atoms: _234  and  _235
REMARK   82  A    between atoms: _240  and  _241
REMARK   83  A    between atoms: _244  and  _245
REMARK   84  A    between atoms: _250  and  _252
REMARK   85  A    between atoms: _252  and  _253
REMARK   86  A    between atoms: _252  and  _255
REMARK   87  A    between atoms: _255  and  _256
REMARK   88  A    between atoms: _260  and  ZN_262
REMARK                            x       y       z     vdW  Elec       q    Type
REMARK                         _______ _______ _______ _____ _____    ______ ____
ROOT
ATOM      1  O   HOH     1      16.155   8.950   4.416  0.00  0.00    +0.000 OA
ENDROOT
TORSDOF 0
REMARK  Name = ../refined-set-2016/3m8t/3m8t_pocket.pdb
REMARK  88 active torsions:
REMARK  status: ('A' for Active; 'I' for Inactive)
REMARK    1  A    between atoms: _1  and  _3
REMARK    2  A    between atoms: _3  and  _4
REMARK    3  A    between atoms: _3  and  _6
REMARK    4  A    between atoms: _6  and  _7
REMARK    5  A    between atoms: _17  and  _19
REMARK    6  A    between atoms: _19  and  _20
REMARK    7  A    between atoms: _22  and  _24
REMARK    8  A    between atoms: _24  and  _25
REMARK    9  A    between atoms: _24  and  _27
REMARK   10  A    between atoms: _27  and  _28
REMARK   11  A    between atoms: _31  and  _33
REMARK   12  A    between atoms: _33  and  _34
REMARK   13  A    between atoms: _33  and  _36
REMARK   14  A    between atoms: _36  and  _37
REMARK   15  A    between atoms: _37  and  _38
REMARK   16  A    between atoms: _40  and  _42
REMARK   17  A    between atoms: _59  and  _60
REMARK   18  A    between atoms: _68  and  _70
REMARK   19  A    between atoms: _70  and  _71
REMARK   20  A    between atoms: _70  and  _73
REMARK   21  A    between atoms: _73  and  _74
REMARK   22  A    between atoms: _77  and  _79
REMARK   23  A    between atoms: _88  and  _89
REMARK   24  A    between atoms: _97  and  _99
REMARK   25  A    between atoms: _99  and  _100
REMARK   26  A    between atoms: _99  and  _102
REMARK   27  A    between atoms: _102  and  _103
REMARK   28  A    between atoms: _106  and  _108
REMARK   29  A    between atoms: _108  and  _109
REMARK   30  A    between atoms: _108  and  _111
REMARK   31  A    between atoms: _111  and  _112
REMARK   32  A    between atoms: _117  and  _118
REMARK   33  A    between atoms: _120  and  _122
REMARK   34  A    between atoms: _122  and  _123
REMARK   35  A    between atoms: _122  and  _125
REMARK   36  A    between atoms: _125  and  _126
REMARK   37  A    between atoms: _131  and  _133
REMARK   38  A    between atoms: _133  and  _134
REMARK   39  A    between atoms: _133  and  _136
REMARK   40  A    between atoms: _136  and  _137
REMARK   41  A    between atoms: _140  and  _142
REMARK   42  A    between atoms: _142  and  _143
REMARK   43  A    between atoms: _142  and  _145
REMARK   44  A    between atoms: _145  and  _146
REMARK   45  A    between atoms: _149  and  _151
REMARK   46  A    between atoms: _151  and  _152
REMARK   47  A    between atoms: _155  and  _157
REMARK   48  A    between atoms: _157  and  _158
REMARK   49  A    between atoms: _157  and  _160
REMARK   50  A    between atoms: _160  and  _161
REMARK   51  A    between atoms: _165  and  ZN_261
REMARK   52  A    between atoms: _166  and  _168
REMARK   53  A    between atoms: _168  and  _169
REMARK   54  A    between atoms: _168  and  _171
REMARK   55  A    between atoms: _173  and  _175
REMARK   56  A    between atoms: _175  and  _176
REMARK   57  A    between atoms: _175  and  _178
REMARK   58  A    between atoms: _178  and  _179
REMARK   59  A    between atoms: _181  and  _183
REMARK   60  A    between atoms: _183  and  _184
REMARK   61  A    between atoms: _186  and  _188
REMARK   62  A    between atoms: _188  and  _189
REMARK   63  A    between atoms: _188  and  _191
REMARK   64  A    between atoms: _191  and  _192
REMARK   65  A    between atoms: _195  and  _197
REMARK   66  A    between atoms: _197  and  _198
REMARK   67  A    between atoms: _197  and  _200
REMARK   68  A    between atoms: _203  and  _205
REMARK   69  A    between atoms: _205  and  _206
REMARK   70  A    between atoms: _209  and  _211
REMARK   71  A    between atoms: _211  and  _212
REMARK   72  A    between atoms: _211  and  _214
REMARK   73  A    between atoms: _214  and  _215
REMARK   74  A    between atoms: _218  and  _220
REMARK   75  A    between atoms: _220  and  _221
REMARK   76  A    between atoms: _220  and  _223
REMARK   77  A    between atoms: _223  and  _224
REMARK   78  A    between atoms: _229  and  _231
REMARK   79  A    between atoms: _231  and  _232
REMARK   80  A    between atoms: _231  and  _234
REMARK   81  A    between atoms: _234  and  _235
REMARK   82  A    between atoms: _240  and  _241
REMARK   83  A    between atoms: _244  and  _245
REMARK   84  A    between atoms: _250  and  _252
REMARK   85  A    between atoms: _252  and  _253
REMARK   86  A    between atoms: _252  and  _255
REMARK   87  A    between atoms: _255  and  _256
REMARK   88  A    between atoms: _260  and  ZN_262
REMARK                            x       y       z     vdW  Elec       q    Type
REMARK                         _______ _______ _______ _____ _____    ______ ____
ROOT
ATOM      1  O   HOH     1      14.252  10.824   6.005  0.00  0.00    +0.000 OA
ENDROOT
TORSDOF 0
REMARK  Name = ../refined-set-2016/3m8t/3m8t_pocket.pdb
REMARK  88 active torsions:
REMARK  status: ('A' for Active; 'I' for Inactive)
REMARK    1  A    between atoms: _1  and  _3
REMARK    2  A    between atoms: _3  and  _4
REMARK    3  A    between atoms: _3  and  _6
REMARK    4  A    between atoms: _6  and  _7
REMARK    5  A    between atoms: _17  and  _19
REMARK    6  A    between atoms: _19  and  _20
REMARK    7  A    between atoms: _22  and  _24
REMARK    8  A    between atoms: _24  and  _25
REMARK    9  A    between atoms: _24  and  _27
REMARK   10  A    between atoms: _27  and  _28
REMARK   11  A    between atoms: _31  and  _33
REMARK   12  A    between atoms: _33  and  _34
REMARK   13  A    between atoms: _33  and  _36
REMARK   14  A    between atoms: _36  and  _37
REMARK   15  A    between atoms: _37  and  _38
REMARK   16  A    between atoms: _40  and  _42
REMARK   17  A    between atoms: _59  and  _60
REMARK   18  A    between atoms: _68  and  _70
REMARK   19  A    between atoms: _70  and  _71
REMARK   20  A    between atoms: _70  and  _73
REMARK   21  A    between atoms: _73  and  _74
REMARK   22  A    between atoms: _77  and  _79
REMARK   23  A    between atoms: _88  and  _89
REMARK   24  A    between atoms: _97  and  _99
REMARK   25  A    between atoms: _99  and  _100
REMARK   26  A    between atoms: _99  and  _102
REMARK   27  A    between atoms: _102  and  _103
REMARK   28  A    between atoms: _106  and  _108
REMARK   29  A    between atoms: _108  and  _109
REMARK   30  A    between atoms: _108  and  _111
REMARK   31  A    between atoms: _111  and  _112
REMARK   32  A    between atoms: _117  and  _118
REMARK   33  A    between atoms: _120  and  _122
REMARK   34  A    between atoms: _122  and  _123
REMARK   35  A    between atoms: _122  and  _125
REMARK   36  A    between atoms: _125  and  _126
REMARK   37  A    between atoms: _131  and  _133
REMARK   38  A    between atoms: _133  and  _134
REMARK   39  A    between atoms: _133  and  _136
REMARK   40  A    between atoms: _136  and  _137
REMARK   41  A    between atoms: _140  and  _142
REMARK   42  A    between atoms: _142  and  _143
REMARK   43  A    between atoms: _142  and  _145
REMARK   44  A    between atoms: _145  and  _146
REMARK   45  A    between atoms: _149  and  _151
REMARK   46  A    between atoms: _151  and  _152
REMARK   47  A    between atoms: _155  and  _157
REMARK   48  A    between atoms: _157  and  _158
REMARK   49  A    between atoms: _157  and  _160
REMARK   50  A    between atoms: _160  and  _161
REMARK   51  A    between atoms: _165  and  ZN_261
REMARK   52  A    between atoms: _166  and  _168
REMARK   53  A    between atoms: _168  and  _169
REMARK   54  A    between atoms: _168  and  _171
REMARK   55  A    between atoms: _173  and  _175
REMARK   56  A    between atoms: _175  and  _176
REMARK   57  A    between atoms: _175  and  _178
REMARK   58  A    between atoms: _178  and  _179
REMARK   59  A    between atoms: _181  and  _183
REMARK   60  A    between atoms: _183  and  _184
REMARK   61  A    between atoms: _186  and  _188
REMARK   62  A    between atoms: _188  and  _189
REMARK   63  A    between atoms: _188  and  _191
REMARK   64  A    between atoms: _191  and  _192
REMARK   65  A    between atoms: _195  and  _197
REMARK   66  A    between atoms: _197  and  _198
REMARK   67  A    between atoms: _197  and  _200
REMARK   68  A    between atoms: _203  and  _205
REMARK   69  A    between atoms: _205  and  _206
REMARK   70  A    between atoms: _209  and  _211
REMARK   71  A    between atoms: _211  and  _212
REMARK   72  A    between atoms: _211  and  _214
REMARK   73  A    between atoms: _214  and  _215
REMARK   74  A    between atoms: _218  and  _220
REMARK   75  A    between atoms: _220  and  _221
REMARK   76  A    between atoms: _220  and  _223
REMARK   77  A    between atoms: _223  and  _224
REMARK   78  A    between atoms: _229  and  _231
REMARK   79  A    between atoms: _231  and  _232
REMARK   80  A    between atoms: _231  and  _234
REMARK   81  A    between atoms: _234  and  _235
REMARK   82  A    between atoms: _240  and  _241
REMARK   83  A    between atoms: _244  and  _245
REMARK   84  A    between atoms: _250  and  _252
REMARK   85  A    between atoms: _252  and  _253
REMARK   86  A    between atoms: _252  and  _255
REMARK   87  A    between atoms: _255  and  _256
REMARK   88  A    between atoms: _260  and  ZN_262
REMARK                            x       y       z     vdW  Elec       q    Type
REMARK                         _______ _______ _______ _____ _____    ______ ____
ROOT
ATOM      1  O   HOH     1      12.182  14.446  -4.777  0.00  0.00    +0.000 OA
ENDROOT
TORSDOF 0
REMARK  Name = ../refined-set-2016/3m8t/3m8t_pocket.pdb
REMARK  88 active torsions:
REMARK  status: ('A' for Active; 'I' for Inactive)
REMARK    1  A    between atoms: _1  and  _3
REMARK    2  A    between atoms: _3  and  _4
REMARK    3  A    between atoms: _3  and  _6
REMARK    4  A    between atoms: _6  and  _7
REMARK    5  A    between atoms: _17  and  _19
REMARK    6  A    between atoms: _19  and  _20
REMARK    7  A    between atoms: _22  and  _24
REMARK    8  A    between atoms: _24  and  _25
REMARK    9  A    between atoms: _24  and  _27
REMARK   10  A    between atoms: _27  and  _28
REMARK   11  A    between atoms: _31  and  _33
REMARK   12  A    between atoms: _33  and  _34
REMARK   13  A    between atoms: _33  and  _36
REMARK   14  A    between atoms: _36  and  _37
REMARK   15  A    between atoms: _37  and  _38
REMARK   16  A    between atoms: _40  and  _42
REMARK   17  A    between atoms: _59  and  _60
REMARK   18  A    between atoms: _68  and  _70
REMARK   19  A    between atoms: _70  and  _71
REMARK   20  A    between atoms: _70  and  _73
REMARK   21  A    between atoms: _73  and  _74
REMARK   22  A    between atoms: _77  and  _79
REMARK   23  A    between atoms: _88  and  _89
REMARK   24  A    between atoms: _97  and  _99
REMARK   25  A    between atoms: _99  and  _100
REMARK   26  A    between atoms: _99  and  _102
REMARK   27  A    between atoms: _102  and  _103
REMARK   28  A    between atoms: _106  and  _108
REMARK   29  A    between atoms: _108  and  _109
REMARK   30  A    between atoms: _108  and  _111
REMARK   31  A    between atoms: _111  and  _112
REMARK   32  A    between atoms: _117  and  _118
REMARK   33  A    between atoms: _120  and  _122
REMARK   34  A    between atoms: _122  and  _123
REMARK   35  A    between atoms: _122  and  _125
REMARK   36  A    between atoms: _125  and  _126
REMARK   37  A    between atoms: _131  and  _133
REMARK   38  A    between atoms: _133  and  _134
REMARK   39  A    between atoms: _133  and  _136
REMARK   40  A    between atoms: _136  and  _137
REMARK   41  A    between atoms: _140  and  _142
REMARK   42  A    between atoms: _142  and  _143
REMARK   43  A    between atoms: _142  and  _145
REMARK   44  A    between atoms: _145  and  _146
REMARK   45  A    between atoms: _149  and  _151
REMARK   46  A    between atoms: _151  and  _152
REMARK   47  A    between atoms: _155  and  _157
REMARK   48  A    between atoms: _157  and  _158
REMARK   49  A    between atoms: _157  and  _160
REMARK   50  A    between atoms: _160  and  _161
REMARK   51  A    between atoms: _165  and  ZN_261
REMARK   52  A    between atoms: _166  and  _168
REMARK   53  A    between atoms: _168  and  _169
REMARK   54  A    between atoms: _168  and  _171
REMARK   55  A    between atoms: _173  and  _175
REMARK   56  A    between atoms: _175  and  _176
REMARK   57  A    between atoms: _175  and  _178
REMARK   58  A    between atoms: _178  and  _179
REMARK   59  A    between atoms: _181  and  _183
REMARK   60  A    between atoms: _183  and  _184
REMARK   61  A    between atoms: _186  and  _188
REMARK   62  A    between atoms: _188  and  _189
REMARK   63  A    between atoms: _188  and  _191
REMARK   64  A    between atoms: _191  and  _192
REMARK   65  A    between atoms: _195  and  _197
REMARK   66  A    between atoms: _197  and  _198
REMARK   67  A    between atoms: _197  and  _200
REMARK   68  A    between atoms: _203  and  _205
REMARK   69  A    between atoms: _205  and  _206
REMARK   70  A    between atoms: _209  and  _211
REMARK   71  A    between atoms: _211  and  _212
REMARK   72  A    between atoms: _211  and  _214
REMARK   73  A    between atoms: _214  and  _215
REMARK   74  A    between atoms: _218  and  _220
REMARK   75  A    between atoms: _220  and  _221
REMARK   76  A    between atoms: _220  and  _223
REMARK   77  A    between atoms: _223  and  _224
REMARK   78  A    between atoms: _229  and  _231
REMARK   79  A    between atoms: _231  and  _232
REMARK   80  A    between atoms: _231  and  _234
REMARK   81  A    between atoms: _234  and  _235
REMARK   82  A    between atoms: _240  and  _241
REMARK   83  A    between atoms: _244  and  _245
REMARK   84  A    between atoms: _250  and  _252
REMARK   85  A    between atoms: _252  and  _253
REMARK   86  A    between atoms: _252  and  _255
REMARK   87  A    between atoms: _255  and  _256
REMARK   88  A    between atoms: _260  and  ZN_262
REMARK                            x       y       z     vdW  Elec       q    Type
REMARK                         _______ _______ _______ _____ _____    ______ ____
ROOT
ATOM      1  O   HOH     1      -1.484   8.487  -1.510  0.00  0.00    +0.000 OA
ENDROOT
TORSDOF 0
REMARK  Name = ../refined-set-2016/3m8t/3m8t_pocket.pdb
REMARK  88 active torsions:
REMARK  status: ('A' for Active; 'I' for Inactive)
REMARK    1  A    between atoms: _1  and  _3
REMARK    2  A    between atoms: _3  and  _4
REMARK    3  A    between atoms: _3  and  _6
REMARK    4  A    between atoms: _6  and  _7
REMARK    5  A    between atoms: _17  and  _19
REMARK    6  A    between atoms: _19  and  _20
REMARK    7  A    between atoms: _22  and  _24
REMARK    8  A    between atoms: _24  and  _25
REMARK    9  A    between atoms: _24  and  _27
REMARK   10  A    between atoms: _27  and  _28
REMARK   11  A    between atoms: _31  and  _33
REMARK   12  A    between atoms: _33  and  _34
REMARK   13  A    between atoms: _33  and  _36
REMARK   14  A    between atoms: _36  and  _37
REMARK   15  A    between atoms: _37  and  _38
REMARK   16  A    between atoms: _40  and  _42
REMARK   17  A    between atoms: _59  and  _60
REMARK   18  A    between atoms: _68  and  _70
REMARK   19  A    between atoms: _70  and  _71
REMARK   20  A    between atoms: _70  and  _73
REMARK   21  A    between atoms: _73  and  _74
REMARK   22  A    between atoms: _77  and  _79
REMARK   23  A    between atoms: _88  and  _89
REMARK   24  A    between atoms: _97  and  _99
REMARK   25  A    between atoms: _99  and  _100
REMARK   26  A    between atoms: _99  and  _102
REMARK   27  A    between atoms: _102  and  _103
REMARK   28  A    between atoms: _106  and  _108
REMARK   29  A    between atoms: _108  and  _109
REMARK   30  A    between atoms: _108  and  _111
REMARK   31  A    between atoms: _111  and  _112
REMARK   32  A    between atoms: _117  and  _118
REMARK   33  A    between atoms: _120  and  _122
REMARK   34  A    between atoms: _122  and  _123
REMARK   35  A    between atoms: _122  and  _125
REMARK   36  A    between atoms: _125  and  _126
REMARK   37  A    between atoms: _131  and  _133
REMARK   38  A    between atoms: _133  and  _134
REMARK   39  A    between atoms: _133  and  _136
REMARK   40  A    between atoms: _136  and  _137
REMARK   41  A    between atoms: _140  and  _142
REMARK   42  A    between atoms: _142  and  _143
REMARK   43  A    between atoms: _142  and  _145
REMARK   44  A    between atoms: _145  and  _146
REMARK   45  A    between atoms: _149  and  _151
REMARK   46  A    between atoms: _151  and  _152
REMARK   47  A    between atoms: _155  and  _157
REMARK   48  A    between atoms: _157  and  _158
REMARK   49  A    between atoms: _157  and  _160
REMARK   50  A    between atoms: _160  and  _161
REMARK   51  A    between atoms: _165  and  ZN_261
REMARK   52  A    between atoms: _166  and  _168
REMARK   53  A    between atoms: _168  and  _169
REMARK   54  A    between atoms: _168  and  _171
REMARK   55  A    between atoms: _173  and  _175
REMARK   56  A    between atoms: _175  and  _176
REMARK   57  A    between atoms: _175  and  _178
REMARK   58  A    between atoms: _178  and  _179
REMARK   59  A    between atoms: _181  and  _183
REMARK   60  A    between atoms: _183  and  _184
REMARK   61  A    between atoms: _186  and  _188
REMARK   62  A    between atoms: _188  and  _189
REMARK   63  A    between atoms: _188  and  _191
REMARK   64  A    between atoms: _191  and  _192
REMARK   65  A    between atoms: _195  and  _197
REMARK   66  A    between atoms: _197  and  _198
REMARK   67  A    between atoms: _197  and  _200
REMARK   68  A    between atoms: _203  and  _205
REMARK   69  A    between atoms: _205  and  _206
REMARK   70  A    between atoms: _209  and  _211
REMARK   71  A    between atoms: _211  and  _212
REMARK   72  A    between atoms: _211  and  _214
REMARK   73  A    between atoms: _214  and  _215
REMARK   74  A    between atoms: _218  and  _220
REMARK   75  A    between atoms: _220  and  _221
REMARK   76  A    between atoms: _220  and  _223
REMARK   77  A    between atoms: _223  and  _224
REMARK   78  A    between atoms: _229  and  _231
REMARK   79  A    between atoms: _231  and  _232
REMARK   80  A    between atoms: _231  and  _234
REMARK   81  A    between atoms: _234  and  _235
REMARK   82  A    between atoms: _240  and  _241
REMARK   83  A    between atoms: _244  and  _245
REMARK   84  A    between atoms: _250  and  _252
REMARK   85  A    between atoms: _252  and  _253
REMARK   86  A    between atoms: _252  and  _255
REMARK   87  A    between atoms: _255  and  _256
REMARK   88  A    between atoms: _260  and  ZN_262
REMARK                            x       y       z     vdW  Elec       q    Type
REMARK                         _______ _______ _______ _____ _____    ______ ____
ROOT
ATOM      1  O   HOH     1       0.031  15.660  -4.382  0.00  0.00    +0.000 OA
ENDROOT
TORSDOF 0
REMARK  Name = ../refined-set-2016/3m8t/3m8t_pocket.pdb
REMARK  88 active torsions:
REMARK  status: ('A' for Active; 'I' for Inactive)
REMARK    1  A    between atoms: _1  and  _3
REMARK    2  A    between atoms: _3  and  _4
REMARK    3  A    between atoms: _3  and  _6
REMARK    4  A    between atoms: _6  and  _7
REMARK    5  A    between atoms: _17  and  _19
REMARK    6  A    between atoms: _19  and  _20
REMARK    7  A    between atoms: _22  and  _24
REMARK    8  A    between atoms: _24  and  _25
REMARK    9  A    between atoms: _24  and  _27
REMARK   10  A    between atoms: _27  and  _28
REMARK   11  A    between atoms: _31  and  _33
REMARK   12  A    between atoms: _33  and  _34
REMARK   13  A    between atoms: _33  and  _36
REMARK   14  A    between atoms: _36  and  _37
REMARK   15  A    between atoms: _37  and  _38
REMARK   16  A    between atoms: _40  and  _42
REMARK   17  A    between atoms: _59  and  _60
REMARK   18  A    between atoms: _68  and  _70
REMARK   19  A    between atoms: _70  and  _71
REMARK   20  A    between atoms: _70  and  _73
REMARK   21  A    between atoms: _73  and  _74
REMARK   22  A    between atoms: _77  and  _79
REMARK   23  A    between atoms: _88  and  _89
REMARK   24  A    between atoms: _97  and  _99
REMARK   25  A    between atoms: _99  and  _100
REMARK   26  A    between atoms: _99  and  _102
REMARK   27  A    between atoms: _102  and  _103
REMARK   28  A    between atoms: _106  and  _108
REMARK   29  A    between atoms: _108  and  _109
REMARK   30  A    between atoms: _108  and  _111
REMARK   31  A    between atoms: _111  and  _112
REMARK   32  A    between atoms: _117  and  _118
REMARK   33  A    between atoms: _120  and  _122
REMARK   34  A    between atoms: _122  and  _123
REMARK   35  A    between atoms: _122  and  _125
REMARK   36  A    between atoms: _125  and  _126
REMARK   37  A    between atoms: _131  and  _133
REMARK   38  A    between atoms: _133  and  _134
REMARK   39  A    between atoms: _133  and  _136
REMARK   40  A    between atoms: _136  and  _137
REMARK   41  A    between atoms: _140  and  _142
REMARK   42  A    between atoms: _142  and  _143
REMARK   43  A    between atoms: _142  and  _145
REMARK   44  A    between atoms: _145  and  _146
REMARK   45  A    between atoms: _149  and  _151
REMARK   46  A    between atoms: _151  and  _152
REMARK   47  A    between atoms: _155  and  _157
REMARK   48  A    between atoms: _157  and  _158
REMARK   49  A    between atoms: _157  and  _160
REMARK   50  A    between atoms: _160  and  _161
REMARK   51  A    between atoms: _165  and  ZN_261
REMARK   52  A    between atoms: _166  and  _168
REMARK   53  A    between atoms: _168  and  _169
REMARK   54  A    between atoms: _168  and  _171
REMARK   55  A    between atoms: _173  and  _175
REMARK   56  A    between atoms: _175  and  _176
REMARK   57  A    between atoms: _175  and  _178
REMARK   58  A    between atoms: _178  and  _179
REMARK   59  A    between atoms: _181  and  _183
REMARK   60  A    between atoms: _183  and  _184
REMARK   61  A    between atoms: _186  and  _188
REMARK   62  A    between atoms: _188  and  _189
REMARK   63  A    between atoms: _188  and  _191
REMARK   64  A    between atoms: _191  and  _192
REMARK   65  A    between atoms: _195  and  _197
REMARK   66  A    between atoms: _197  and  _198
REMARK   67  A    between atoms: _197  and  _200
REMARK   68  A    between atoms: _203  and  _205
REMARK   69  A    between atoms: _205  and  _206
REMARK   70  A    between atoms: _209  and  _211
REMARK   71  A    between atoms: _211  and  _212
REMARK   72  A    between atoms: _211  and  _214
REMARK   73  A    between atoms: _214  and  _215
REMARK   74  A    between atoms: _218  and  _220
REMARK   75  A    between atoms: _220  and  _221
REMARK   76  A    between atoms: _220  and  _223
REMARK   77  A    between atoms: _223  and  _224
REMARK   78  A    between atoms: _229  and  _231
REMARK   79  A    between atoms: _231  and  _232
REMARK   80  A    between atoms: _231  and  _234
REMARK   81  A    between atoms: _234  and  _235
REMARK   82  A    between atoms: _240  and  _241
REMARK   83  A    between atoms: _244  and  _245
REMARK   84  A    between atoms: _250  and  _252
REMARK   85  A    between atoms: _252  and  _253
REMARK   86  A    between atoms: _252  and  _255
REMARK   87  A    between atoms: _255  and  _256
REMARK   88  A    between atoms: _260  and  ZN_262
REMARK                            x       y       z     vdW  Elec       q    Type
REMARK                         _______ _______ _______ _____ _____    ______ ____
ROOT
ATOM      1  O   HOH     1      -0.409  11.268   6.041  0.00  0.00    +0.000 OA
ENDROOT
TORSDOF 0
REMARK  Name = ../refined-set-2016/3m8t/3m8t_pocket.pdb
REMARK  88 active torsions:
REMARK  status: ('A' for Active; 'I' for Inactive)
REMARK    1  A    between atoms: _1  and  _3
REMARK    2  A    between atoms: _3  and  _4
REMARK    3  A    between atoms: _3  and  _6
REMARK    4  A    between atoms: _6  and  _7
REMARK    5  A    between atoms: _17  and  _19
REMARK    6  A    between atoms: _19  and  _20
REMARK    7  A    between atoms: _22  and  _24
REMARK    8  A    between atoms: _24  and  _25
REMARK    9  A    between atoms: _24  and  _27
REMARK   10  A    between atoms: _27  and  _28
REMARK   11  A    between atoms: _31  and  _33
REMARK   12  A    between atoms: _33  and  _34
REMARK   13  A    between atoms: _33  and  _36
REMARK   14  A    between atoms: _36  and  _37
REMARK   15  A    between atoms: _37  and  _38
REMARK   16  A    between atoms: _40  and  _42
REMARK   17  A    between atoms: _59  and  _60
REMARK   18  A    between atoms: _68  and  _70
REMARK   19  A    between atoms: _70  and  _71
REMARK   20  A    between atoms: _70  and  _73
REMARK   21  A    between atoms: _73  and  _74
REMARK   22  A    between atoms: _77  and  _79
REMARK   23  A    between atoms: _88  and  _89
REMARK   24  A    between atoms: _97  and  _99
REMARK   25  A    between atoms: _99  and  _100
REMARK   26  A    between atoms: _99  and  _102
REMARK   27  A    between atoms: _102  and  _103
REMARK   28  A    between atoms: _106  and  _108
REMARK   29  A    between atoms: _108  and  _109
REMARK   30  A    between atoms: _108  and  _111
REMARK   31  A    between atoms: _111  and  _112
REMARK   32  A    between atoms: _117  and  _118
REMARK   33  A    between atoms: _120  and  _122
REMARK   34  A    between atoms: _122  and  _123
REMARK   35  A    between atoms: _122  and  _125
REMARK   36  A    between atoms: _125  and  _126
REMARK   37  A    between atoms: _131  and  _133
REMARK   38  A    between atoms: _133  and  _134
REMARK   39  A    between atoms: _133  and  _136
REMARK   40  A    between atoms: _136  and  _137
REMARK   41  A    between atoms: _140  and  _142
REMARK   42  A    between atoms: _142  and  _143
REMARK   43  A    between atoms: _142  and  _145
REMARK   44  A    between atoms: _145  and  _146
REMARK   45  A    between atoms: _149  and  _151
REMARK   46  A    between atoms: _151  and  _152
REMARK   47  A    between atoms: _155  and  _157
REMARK   48  A    between atoms: _157  and  _158
REMARK   49  A    between atoms: _157  and  _160
REMARK   50  A    between atoms: _160  and  _161
REMARK   51  A    between atoms: _165  and  ZN_261
REMARK   52  A    between atoms: _166  and  _168
REMARK   53  A    between atoms: _168  and  _169
REMARK   54  A    between atoms: _168  and  _171
REMARK   55  A    between atoms: _173  and  _175
REMARK   56  A    between atoms: _175  and  _176
REMARK   57  A    between atoms: _175  and  _178
REMARK   58  A    between atoms: _178  and  _179
REMARK   59  A    between atoms: _181  and  _183
REMARK   60  A    between atoms: _183  and  _184
REMARK   61  A    between atoms: _186  and  _188
REMARK   62  A    between atoms: _188  and  _189
REMARK   63  A    between atoms: _188  and  _191
REMARK   64  A    between atoms: _191  and  _192
REMARK   65  A    between atoms: _195  and  _197
REMARK   66  A    between atoms: _197  and  _198
REMARK   67  A    between atoms: _197  and  _200
REMARK   68  A    between atoms: _203  and  _205
REMARK   69  A    between atoms: _205  and  _206
REMARK   70  A    between atoms: _209  and  _211
REMARK   71  A    between atoms: _211  and  _212
REMARK   72  A    between atoms: _211  and  _214
REMARK   73  A    between atoms: _214  and  _215
REMARK   74  A    between atoms: _218  and  _220
REMARK   75  A    between atoms: _220  and  _221
REMARK   76  A    between atoms: _220  and  _223
REMARK   77  A    between atoms: _223  and  _224
REMARK   78  A    between atoms: _229  and  _231
REMARK   79  A    between atoms: _231  and  _232
REMARK   80  A    between atoms: _231  and  _234
REMARK   81  A    between atoms: _234  and  _235
REMARK   82  A    between atoms: _240  and  _241
REMARK   83  A    between atoms: _244  and  _245
REMARK   84  A    between atoms: _250  and  _252
REMARK   85  A    between atoms: _252  and  _253
REMARK   86  A    between atoms: _252  and  _255
REMARK   87  A    between atoms: _255  and  _256
REMARK   88  A    between atoms: _260  and  ZN_262
REMARK                            x       y       z     vdW  Elec       q    Type
REMARK                         _______ _______ _______ _____ _____    ______ ____
ROOT
ATOM      1  O   HOH     1      14.095   8.584   7.303  0.00  0.00    +0.000 OA
ENDROOT
TORSDOF 0
REMARK  Name = ../refined-set-2016/3m8t/3m8t_pocket.pdb
REMARK  88 active torsions:
REMARK  status: ('A' for Active; 'I' for Inactive)
REMARK    1  A    between atoms: _1  and  _3
REMARK    2  A    between atoms: _3  and  _4
REMARK    3  A    between atoms: _3  and  _6
REMARK    4  A    between atoms: _6  and  _7
REMARK    5  A    between atoms: _17  and  _19
REMARK    6  A    between atoms: _19  and  _20
REMARK    7  A    between atoms: _22  and  _24
REMARK    8  A    between atoms: _24  and  _25
REMARK    9  A    between atoms: _24  and  _27
REMARK   10  A    between atoms: _27  and  _28
REMARK   11  A    between atoms: _31  and  _33
REMARK   12  A    between atoms: _33  and  _34
REMARK   13  A    between atoms: _33  and  _36
REMARK   14  A    between atoms: _36  and  _37
REMARK   15  A    between atoms: _37  and  _38
REMARK   16  A    between atoms: _40  and  _42
REMARK   17  A    between atoms: _59  and  _60
REMARK   18  A    between atoms: _68  and  _70
REMARK   19  A    between atoms: _70  and  _71
REMARK   20  A    between atoms: _70  and  _73
REMARK   21  A    between atoms: _73  and  _74
REMARK   22  A    between atoms: _77  and  _79
REMARK   23  A    between atoms: _88  and  _89
REMARK   24  A    between atoms: _97  and  _99
REMARK   25  A    between atoms: _99  and  _100
REMARK   26  A    between atoms: _99  and  _102
REMARK   27  A    between atoms: _102  and  _103
REMARK   28  A    between atoms: _106  and  _108
REMARK   29  A    between atoms: _108  and  _109
REMARK   30  A    between atoms: _108  and  _111
REMARK   31  A    between atoms: _111  and  _112
REMARK   32  A    between atoms: _117  and  _118
REMARK   33  A    between atoms: _120  and  _122
REMARK   34  A    between atoms: _122  and  _123
REMARK   35  A    between atoms: _122  and  _125
REMARK   36  A    between atoms: _125  and  _126
REMARK   37  A    between atoms: _131  and  _133
REMARK   38  A    between atoms: _133  and  _134
REMARK   39  A    between atoms: _133  and  _136
REMARK   40  A    between atoms: _136  and  _137
REMARK   41  A    between atoms: _140  and  _142
REMARK   42  A    between atoms: _142  and  _143
REMARK   43  A    between atoms: _142  and  _145
REMARK   44  A    between atoms: _145  and  _146
REMARK   45  A    between atoms: _149  and  _151
REMARK   46  A    between atoms: _151  and  _152
REMARK   47  A    between atoms: _155  and  _157
REMARK   48  A    between atoms: _157  and  _158
REMARK   49  A    between atoms: _157  and  _160
REMARK   50  A    between atoms: _160  and  _161
REMARK   51  A    between atoms: _165  and  ZN_261
REMARK   52  A    between atoms: _166  and  _168
REMARK   53  A    between atoms: _168  and  _169
REMARK   54  A    between atoms: _168  and  _171
REMARK   55  A    between atoms: _173  and  _175
REMARK   56  A    between atoms: _175  and  _176
REMARK   57  A    between atoms: _175  and  _178
REMARK   58  A    between atoms: _178  and  _179
REMARK   59  A    between atoms: _181  and  _183
REMARK   60  A    between atoms: _183  and  _184
REMARK   61  A    between atoms: _186  and  _188
REMARK   62  A    between atoms: _188  and  _189
REMARK   63  A    between atoms: _188  and  _191
REMARK   64  A    between atoms: _191  and  _192
REMARK   65  A    between atoms: _195  and  _197
REMARK   66  A    between atoms: _197  and  _198
REMARK   67  A    between atoms: _197  and  _200
REMARK   68  A    between atoms: _203  and  _205
REMARK   69  A    between atoms: _205  and  _206
REMARK   70  A    between atoms: _209  and  _211
REMARK   71  A    between atoms: _211  and  _212
REMARK   72  A    between atoms: _211  and  _214
REMARK   73  A    between atoms: _214  and  _215
REMARK   74  A    between atoms: _218  and  _220
REMARK   75  A    between atoms: _220  and  _221
REMARK   76  A    between atoms: _220  and  _223
REMARK   77  A    between atoms: _223  and  _224
REMARK   78  A    between atoms: _229  and  _231
REMARK   79  A    between atoms: _231  and  _232
REMARK   80  A    between atoms: _231  and  _234
REMARK   81  A    between atoms: _234  and  _235
REMARK   82  A    between atoms: _240  and  _241
REMARK   83  A    between atoms: _244  and  _245
REMARK   84  A    between atoms: _250  and  _252
REMARK   85  A    between atoms: _252  and  _253
REMARK   86  A    between atoms: _252  and  _255
REMARK   87  A    between atoms: _255  and  _256
REMARK   88  A    between atoms: _260  and  ZN_262
REMARK                            x       y       z     vdW  Elec       q    Type
REMARK                         _______ _______ _______ _____ _____    ______ ____
ROOT
ATOM      1  O   HOH     1       0.952  11.602   1.715  0.00  0.00    +0.000 OA
ENDROOT
TORSDOF 0
REMARK  Name = ../refined-set-2016/3m8t/3m8t_pocket.pdb
REMARK  88 active torsions:
REMARK  status: ('A' for Active; 'I' for Inactive)
REMARK    1  A    between atoms: _1  and  _3
REMARK    2  A    between atoms: _3  and  _4
REMARK    3  A    between atoms: _3  and  _6
REMARK    4  A    between atoms: _6  and  _7
REMARK    5  A    between atoms: _17  and  _19
REMARK    6  A    between atoms: _19  and  _20
REMARK    7  A    between atoms: _22  and  _24
REMARK    8  A    between atoms: _24  and  _25
REMARK    9  A    between atoms: _24  and  _27
REMARK   10  A    between atoms: _27  and  _28
REMARK   11  A    between atoms: _31  and  _33
REMARK   12  A    between atoms: _33  and  _34
REMARK   13  A    between atoms: _33  and  _36
REMARK   14  A    between atoms: _36  and  _37
REMARK   15  A    between atoms: _37  and  _38
REMARK   16  A    between atoms: _40  and  _42
REMARK   17  A    between atoms: _59  and  _60
REMARK   18  A    between atoms: _68  and  _70
REMARK   19  A    between atoms: _70  and  _71
REMARK   20  A    between atoms: _70  and  _73
REMARK   21  A    between atoms: _73  and  _74
REMARK   22  A    between atoms: _77  and  _79
REMARK   23  A    between atoms: _88  and  _89
REMARK   24  A    between atoms: _97  and  _99
REMARK   25  A    between atoms: _99  and  _100
REMARK   26  A    between atoms: _99  and  _102
REMARK   27  A    between atoms: _102  and  _103
REMARK   28  A    between atoms: _106  and  _108
REMARK   29  A    between atoms: _108  and  _109
REMARK   30  A    between atoms: _108  and  _111
REMARK   31  A    between atoms: _111  and  _112
REMARK   32  A    between atoms: _117  and  _118
REMARK   33  A    between atoms: _120  and  _122
REMARK   34  A    between atoms: _122  and  _123
REMARK   35  A    between atoms: _122  and  _125
REMARK   36  A    between atoms: _125  and  _126
REMARK   37  A    between atoms: _131  and  _133
REMARK   38  A    between atoms: _133  and  _134
REMARK   39  A    between atoms: _133  and  _136
REMARK   40  A    between atoms: _136  and  _137
REMARK   41  A    between atoms: _140  and  _142
REMARK   42  A    between atoms: _142  and  _143
REMARK   43  A    between atoms: _142  and  _145
REMARK   44  A    between atoms: _145  and  _146
REMARK   45  A    between atoms: _149  and  _151
REMARK   46  A    between atoms: _151  and  _152
REMARK   47  A    between atoms: _155  and  _157
REMARK   48  A    between atoms: _157  and  _158
REMARK   49  A    between atoms: _157  and  _160
REMARK   50  A    between atoms: _160  and  _161
REMARK   51  A    between atoms: _165  and  ZN_261
REMARK   52  A    between atoms: _166  and  _168
REMARK   53  A    between atoms: _168  and  _169
REMARK   54  A    between atoms: _168  and  _171
REMARK   55  A    between atoms: _173  and  _175
REMARK   56  A    between atoms: _175  and  _176
REMARK   57  A    between atoms: _175  and  _178
REMARK   58  A    between atoms: _178  and  _179
REMARK   59  A    between atoms: _181  and  _183
REMARK   60  A    between atoms: _183  and  _184
REMARK   61  A    between atoms: _186  and  _188
REMARK   62  A    between atoms: _188  and  _189
REMARK   63  A    between atoms: _188  and  _191
REMARK   64  A    between atoms: _191  and  _192
REMARK   65  A    between atoms: _195  and  _197
REMARK   66  A    between atoms: _197  and  _198
REMARK   67  A    between atoms: _197  and  _200
REMARK   68  A    between atoms: _203  and  _205
REMARK   69  A    between atoms: _205  and  _206
REMARK   70  A    between atoms: _209  and  _211
REMARK   71  A    between atoms: _211  and  _212
REMARK   72  A    between atoms: _211  and  _214
REMARK   73  A    between atoms: _214  and  _215
REMARK   74  A    between atoms: _218  and  _220
REMARK   75  A    between atoms: _220  and  _221
REMARK   76  A    between atoms: _220  and  _223
REMARK   77  A    between atoms: _223  and  _224
REMARK   78  A    between atoms: _229  and  _231
REMARK   79  A    between atoms: _231  and  _232
REMARK   80  A    between atoms: _231  and  _234
REMARK   81  A    between atoms: _234  and  _235
REMARK   82  A    between atoms: _240  and  _241
REMARK   83  A    between atoms: _244  and  _245
REMARK   84  A    between atoms: _250  and  _252
REMARK   85  A    between atoms: _252  and  _253
REMARK   86  A    between atoms: _252  and  _255
REMARK   87  A    between atoms: _255  and  _256
REMARK   88  A    between atoms: _260  and  ZN_262
REMARK                            x       y       z     vdW  Elec       q    Type
REMARK                         _______ _______ _______ _____ _____    ______ ____
ROOT
ATOM      1  O   HOH     1       0.599  11.185  -1.644  0.00  0.00    +0.000 OA
ENDROOT
TORSDOF 0
REMARK  Name = ../refined-set-2016/3m8t/3m8t_pocket.pdb
REMARK  88 active torsions:
REMARK  status: ('A' for Active; 'I' for Inactive)
REMARK    1  A    between atoms: _1  and  _3
REMARK    2  A    between atoms: _3  and  _4
REMARK    3  A    between atoms: _3  and  _6
REMARK    4  A    between atoms: _6  and  _7
REMARK    5  A    between atoms: _17  and  _19
REMARK    6  A    between atoms: _19  and  _20
REMARK    7  A    between atoms: _22  and  _24
REMARK    8  A    between atoms: _24  and  _25
REMARK    9  A    between atoms: _24  and  _27
REMARK   10  A    between atoms: _27  and  _28
REMARK   11  A    between atoms: _31  and  _33
REMARK   12  A    between atoms: _33  and  _34
REMARK   13  A    between atoms: _33  and  _36
REMARK   14  A    between atoms: _36  and  _37
REMARK   15  A    between atoms: _37  and  _38
REMARK   16  A    between atoms: _40  and  _42
REMARK   17  A    between atoms: _59  and  _60
REMARK   18  A    between atoms: _68  and  _70
REMARK   19  A    between atoms: _70  and  _71
REMARK   20  A    between atoms: _70  and  _73
REMARK   21  A    between atoms: _73  and  _74
REMARK   22  A    between atoms: _77  and  _79
REMARK   23  A    between atoms: _88  and  _89
REMARK   24  A    between atoms: _97  and  _99
REMARK   25  A    between atoms: _99  and  _100
REMARK   26  A    between atoms: _99  and  _102
REMARK   27  A    between atoms: _102  and  _103
REMARK   28  A    between atoms: _106  and  _108
REMARK   29  A    between atoms: _108  and  _109
REMARK   30  A    between atoms: _108  and  _111
REMARK   31  A    between atoms: _111  and  _112
REMARK   32  A    between atoms: _117  and  _118
REMARK   33  A    between atoms: _120  and  _122
REMARK   34  A    between atoms: _122  and  _123
REMARK   35  A    between atoms: _122  and  _125
REMARK   36  A    between atoms: _125  and  _126
REMARK   37  A    between atoms: _131  and  _133
REMARK   38  A    between atoms: _133  and  _134
REMARK   39  A    between atoms: _133  and  _136
REMARK   40  A    between atoms: _136  and  _137
REMARK   41  A    between atoms: _140  and  _142
REMARK   42  A    between atoms: _142  and  _143
REMARK   43  A    between atoms: _142  and  _145
REMARK   44  A    between atoms: _145  and  _146
REMARK   45  A    between atoms: _149  and  _151
REMARK   46  A    between atoms: _151  and  _152
REMARK   47  A    between atoms: _155  and  _157
REMARK   48  A    between atoms: _157  and  _158
REMARK   49  A    between atoms: _157  and  _160
REMARK   50  A    between atoms: _160  and  _161
REMARK   51  A    between atoms: _165  and  ZN_261
REMARK   52  A    between atoms: _166  and  _168
REMARK   53  A    between atoms: _168  and  _169
REMARK   54  A    between atoms: _168  and  _171
REMARK   55  A    between atoms: _173  and  _175
REMARK   56  A    between atoms: _175  and  _176
REMARK   57  A    between atoms: _175  and  _178
REMARK   58  A    between atoms: _178  and  _179
REMARK   59  A    between atoms: _181  and  _183
REMARK   60  A    between atoms: _183  and  _184
REMARK   61  A    between atoms: _186  and  _188
REMARK   62  A    between atoms: _188  and  _189
REMARK   63  A    between atoms: _188  and  _191
REMARK   64  A    between atoms: _191  and  _192
REMARK   65  A    between atoms: _195  and  _197
REMARK   66  A    between atoms: _197  and  _198
REMARK   67  A    between atoms: _197  and  _200
REMARK   68  A    between atoms: _203  and  _205
REMARK   69  A    between atoms: _205  and  _206
REMARK   70  A    between atoms: _209  and  _211
REMARK   71  A    between atoms: _211  and  _212
REMARK   72  A    between atoms: _211  and  _214
REMARK   73  A    between atoms: _214  and  _215
REMARK   74  A    between atoms: _218  and  _220
REMARK   75  A    between atoms: _220  and  _221
REMARK   76  A    between atoms: _220  and  _223
REMARK   77  A    between atoms: _223  and  _224
REMARK   78  A    between atoms: _229  and  _231
REMARK   79  A    between atoms: _231  and  _232
REMARK   80  A    between atoms: _231  and  _234
REMARK   81  A    between atoms: _234  and  _235
REMARK   82  A    between atoms: _240  and  _241
REMARK   83  A    between atoms: _244  and  _245
REMARK   84  A    between atoms: _250  and  _252
REMARK   85  A    between atoms: _252  and  _253
REMARK   86  A    between atoms: _252  and  _255
REMARK   87  A    between atoms: _255  and  _256
REMARK   88  A    between atoms: _260  and  ZN_262
REMARK                            x       y       z     vdW  Elec       q    Type
REMARK                         _______ _______ _______ _____ _____    ______ ____
ROOT
ATOM      1  O   HOH     1      -1.736  11.352   1.963  0.00  0.00    +0.000 OA
ENDROOT
TORSDOF 0
REMARK  Name = ../refined-set-2016/3m8t/3m8t_pocket.pdb
REMARK  88 active torsions:
REMARK  status: ('A' for Active; 'I' for Inactive)
REMARK    1  A    between atoms: _1  and  _3
REMARK    2  A    between atoms: _3  and  _4
REMARK    3  A    between atoms: _3  and  _6
REMARK    4  A    between atoms: _6  and  _7
REMARK    5  A    between atoms: _17  and  _19
REMARK    6  A    between atoms: _19  and  _20
REMARK    7  A    between atoms: _22  and  _24
REMARK    8  A    between atoms: _24  and  _25
REMARK    9  A    between atoms: _24  and  _27
REMARK   10  A    between atoms: _27  and  _28
REMARK   11  A    between atoms: _31  and  _33
REMARK   12  A    between atoms: _33  and  _34
REMARK   13  A    between atoms: _33  and  _36
REMARK   14  A    between atoms: _36  and  _37
REMARK   15  A    between atoms: _37  and  _38
REMARK   16  A    between atoms: _40  and  _42
REMARK   17  A    between atoms: _59  and  _60
REMARK   18  A    between atoms: _68  and  _70
REMARK   19  A    between atoms: _70  and  _71
REMARK   20  A    between atoms: _70  and  _73
REMARK   21  A    between atoms: _73  and  _74
REMARK   22  A    between atoms: _77  and  _79
REMARK   23  A    between atoms: _88  and  _89
REMARK   24  A    between atoms: _97  and  _99
REMARK   25  A    between atoms: _99  and  _100
REMARK   26  A    between atoms: _99  and  _102
REMARK   27  A    between atoms: _102  and  _103
REMARK   28  A    between atoms: _106  and  _108
REMARK   29  A    between atoms: _108  and  _109
REMARK   30  A    between atoms: _108  and  _111
REMARK   31  A    between atoms: _111  and  _112
REMARK   32  A    between atoms: _117  and  _118
REMARK   33  A    between atoms: _120  and  _122
REMARK   34  A    between atoms: _122  and  _123
REMARK   35  A    between atoms: _122  and  _125
REMARK   36  A    between atoms: _125  and  _126
REMARK   37  A    between atoms: _131  and  _133
REMARK   38  A    between atoms: _133  and  _134
REMARK   39  A    between atoms: _133  and  _136
REMARK   40  A    between atoms: _136  and  _137
REMARK   41  A    between atoms: _140  and  _142
REMARK   42  A    between atoms: _142  and  _143
REMARK   43  A    between atoms: _142  and  _145
REMARK   44  A    between atoms: _145  and  _146
REMARK   45  A    between atoms: _149  and  _151
REMARK   46  A    between atoms: _151  and  _152
REMARK   47  A    between atoms: _155  and  _157
REMARK   48  A    between atoms: _157  and  _158
REMARK   49  A    between atoms: _157  and  _160
REMARK   50  A    between atoms: _160  and  _161
REMARK   51  A    between atoms: _165  and  ZN_261
REMARK   52  A    between atoms: _166  and  _168
REMARK   53  A    between atoms: _168  and  _169
REMARK   54  A    between atoms: _168  and  _171
REMARK   55  A    between atoms: _173  and  _175
REMARK   56  A    between atoms: _175  and  _176
REMARK   57  A    between atoms: _175  and  _178
REMARK   58  A    between atoms: _178  and  _179
REMARK   59  A    between atoms: _181  and  _183
REMARK   60  A    between atoms: _183  and  _184
REMARK   61  A    between atoms: _186  and  _188
REMARK   62  A    between atoms: _188  and  _189
REMARK   63  A    between atoms: _188  and  _191
REMARK   64  A    between atoms: _191  and  _192
REMARK   65  A    between atoms: _195  and  _197
REMARK   66  A    between atoms: _197  and  _198
REMARK   67  A    between atoms: _197  and  _200
REMARK   68  A    between atoms: _203  and  _205
REMARK   69  A    between atoms: _205  and  _206
REMARK   70  A    between atoms: _209  and  _211
REMARK   71  A    between atoms: _211  and  _212
REMARK   72  A    between atoms: _211  and  _214
REMARK   73  A    between atoms: _214  and  _215
REMARK   74  A    between atoms: _218  and  _220
REMARK   75  A    between atoms: _220  and  _221
REMARK   76  A    between atoms: _220  and  _223
REMARK   77  A    between atoms: _223  and  _224
REMARK   78  A    between atoms: _229  and  _231
REMARK   79  A    between atoms: _231  and  _232
REMARK   80  A    between atoms: _231  and  _234
REMARK   81  A    between atoms: _234  and  _235
REMARK   82  A    between atoms: _240  and  _241
REMARK   83  A    between atoms: _244  and  _245
REMARK   84  A    between atoms: _250  and  _252
REMARK   85  A    between atoms: _252  and  _253
REMARK   86  A    between atoms: _252  and  _255
REMARK   87  A    between atoms: _255  and  _256
REMARK   88  A    between atoms: _260  and  ZN_262
REMARK                            x       y       z     vdW  Elec       q    Type
REMARK                         _______ _______ _______ _____ _____    ______ ____
ROOT
ATOM      1  O   HOH     1       2.152  18.430  -3.358  0.00  0.00    +0.000 OA
ENDROOT
TORSDOF 0
REMARK  Name = ../refined-set-2016/3m8t/3m8t_pocket.pdb
REMARK  88 active torsions:
REMARK  status: ('A' for Active; 'I' for Inactive)
REMARK    1  A    between atoms: _1  and  _3
REMARK    2  A    between atoms: _3  and  _4
REMARK    3  A    between atoms: _3  and  _6
REMARK    4  A    between atoms: _6  and  _7
REMARK    5  A    between atoms: _17  and  _19
REMARK    6  A    between atoms: _19  and  _20
REMARK    7  A    between atoms: _22  and  _24
REMARK    8  A    between atoms: _24  and  _25
REMARK    9  A    between atoms: _24  and  _27
REMARK   10  A    between atoms: _27  and  _28
REMARK   11  A    between atoms: _31  and  _33
REMARK   12  A    between atoms: _33  and  _34
REMARK   13  A    between atoms: _33  and  _36
REMARK   14  A    between atoms: _36  and  _37
REMARK   15  A    between atoms: _37  and  _38
REMARK   16  A    between atoms: _40  and  _42
REMARK   17  A    between atoms: _59  and  _60
REMARK   18  A    between atoms: _68  and  _70
REMARK   19  A    between atoms: _70  and  _71
REMARK   20  A    between atoms: _70  and  _73
REMARK   21  A    between atoms: _73  and  _74
REMARK   22  A    between atoms: _77  and  _79
REMARK   23  A    between atoms: _88  and  _89
REMARK   24  A    between atoms: _97  and  _99
REMARK   25  A    between atoms: _99  and  _100
REMARK   26  A    between atoms: _99  and  _102
REMARK   27  A    between atoms: _102  and  _103
REMARK   28  A    between atoms: _106  and  _108
REMARK   29  A    between atoms: _108  and  _109
REMARK   30  A    between atoms: _108  and  _111
REMARK   31  A    between atoms: _111  and  _112
REMARK   32  A    between atoms: _117  and  _118
REMARK   33  A    between atoms: _120  and  _122
REMARK   34  A    between atoms: _122  and  _123
REMARK   35  A    between atoms: _122  and  _125
REMARK   36  A    between atoms: _125  and  _126
REMARK   37  A    between atoms: _131  and  _133
REMARK   38  A    between atoms: _133  and  _134
REMARK   39  A    between atoms: _133  and  _136
REMARK   40  A    between atoms: _136  and  _137
REMARK   41  A    between atoms: _140  and  _142
REMARK   42  A    between atoms: _142  and  _143
REMARK   43  A    between atoms: _142  and  _145
REMARK   44  A    between atoms: _145  and  _146
REMARK   45  A    between atoms: _149  and  _151
REMARK   46  A    between atoms: _151  and  _152
REMARK   47  A    between atoms: _155  and  _157
REMARK   48  A    between atoms: _157  and  _158
REMARK   49  A    between atoms: _157  and  _160
REMARK   50  A    between atoms: _160  and  _161
REMARK   51  A    between atoms: _165  and  ZN_261
REMARK   52  A    between atoms: _166  and  _168
REMARK   53  A    between atoms: _168  and  _169
REMARK   54  A    between atoms: _168  and  _171
REMARK   55  A    between atoms: _173  and  _175
REMARK   56  A    between atoms: _175  and  _176
REMARK   57  A    between atoms: _175  and  _178
REMARK   58  A    between atoms: _178  and  _179
REMARK   59  A    between atoms: _181  and  _183
REMARK   60  A    between atoms: _183  and  _184
REMARK   61  A    between atoms: _186  and  _188
REMARK   62  A    between atoms: _188  and  _189
REMARK   63  A    between atoms: _188  and  _191
REMARK   64  A    between atoms: _191  and  _192
REMARK   65  A    between atoms: _195  and  _197
REMARK   66  A    between atoms: _197  and  _198
REMARK   67  A    between atoms: _197  and  _200
REMARK   68  A    between atoms: _203  and  _205
REMARK   69  A    between atoms: _205  and  _206
REMARK   70  A    between atoms: _209  and  _211
REMARK   71  A    between atoms: _211  and  _212
REMARK   72  A    between atoms: _211  and  _214
REMARK   73  A    between atoms: _214  and  _215
REMARK   74  A    between atoms: _218  and  _220
REMARK   75  A    between atoms: _220  and  _221
REMARK   76  A    between atoms: _220  and  _223
REMARK   77  A    between atoms: _223  and  _224
REMARK   78  A    between atoms: _229  and  _231
REMARK   79  A    between atoms: _231  and  _232
REMARK   80  A    between atoms: _231  and  _234
REMARK   81  A    between atoms: _234  and  _235
REMARK   82  A    between atoms: _240  and  _241
REMARK   83  A    between atoms: _244  and  _245
REMARK   84  A    between atoms: _250  and  _252
REMARK   85  A    between atoms: _252  and  _253
REMARK   86  A    between atoms: _252  and  _255
REMARK   87  A    between atoms: _255  and  _256
REMARK   88  A    between atoms: _260  and  ZN_262
REMARK                            x       y       z     vdW  Elec       q    Type
REMARK                         _______ _______ _______ _____ _____    ______ ____
ROOT
ATOM      1  O   HOH     1      -3.037   9.940   0.204  0.00  0.00    +0.000 OA
ENDROOT
TORSDOF 0
