REMARK  Name = ../refined-set-2016/2bys/2bys_pocket.pdb
REMARK  221 active torsions:
REMARK  status: ('A' for Active; 'I' for Inactive)
REMARK    1  A    between atoms: _1  and  _3
REMARK    2  A    between atoms: _3  and  _4
REMARK    3  A    between atoms: _3  and  _6
REMARK    4  A    between atoms: _6  and  _7
REMARK    5  A    between atoms: _10  and  _12
REMARK    6  A    between atoms: _12  and  _13
REMARK    7  A    between atoms: _12  and  _15
REMARK    8  A    between atoms: _15  and  _16
REMARK    9  A    between atoms: _19  and  _21
REMARK   10  A    between atoms: _21  and  _22
REMARK   11  A    between atoms: _21  and  _24
REMARK   12  A    between atoms: _24  and  _25
REMARK   13  A    between atoms: _28  and  _30
REMARK   14  A    between atoms: _30  and  _31
REMARK   15  A    between atoms: _34  and  _36
REMARK   16  A    between atoms: _36  and  _37
REMARK   17  A    between atoms: _36  and  _39
REMARK   18  A    between atoms: _39  and  _40
REMARK   19  A    between atoms: _45  and  _46
REMARK   20  A    between atoms: _48  and  _50
REMARK   21  A    between atoms: _50  and  _51
REMARK   22  A    between atoms: _50  and  _53
REMARK   23  A    between atoms: _53  and  _54
REMARK   24  A    between atoms: _56  and  _58
REMARK   25  A    between atoms: _58  and  _59
REMARK   26  A    between atoms: _58  and  _61
REMARK   27  A    between atoms: _61  and  _62
REMARK   28  A    between atoms: _64  and  _66
REMARK   29  A    between atoms: _66  and  _67
REMARK   30  A    between atoms: _66  and  _69
REMARK   31  A    between atoms: _72  and  _74
REMARK   32  A    between atoms: _74  and  _75
REMARK   33  A    between atoms: _74  and  _77
REMARK   34  A    between atoms: _77  and  _78
REMARK   35  A    between atoms: _78  and  _79
REMARK   36  A    between atoms: _79  and  _80
REMARK   37  A    between atoms: _80  and  _81
REMARK   38  A    between atoms: _85  and  _87
REMARK   39  A    between atoms: _87  and  _88
REMARK   40  A    between atoms: _87  and  _90
REMARK   41  A    between atoms: _90  and  _91
REMARK   42  A    between atoms: _97  and  _99
REMARK   43  A    between atoms: _99  and  _100
REMARK   44  A    between atoms: _102  and  _104
REMARK   45  A    between atoms: _104  and  _105
REMARK   46  A    between atoms: _104  and  _107
REMARK   47  A    between atoms: _107  and  _108
REMARK   48  A    between atoms: _110  and  _112
REMARK   49  A    between atoms: _112  and  _113
REMARK   50  A    between atoms: _112  and  _115
REMARK   51  A    between atoms: _115  and  _116
REMARK   52  A    between atoms: _126  and  _128
REMARK   53  A    between atoms: _128  and  _129
REMARK   54  A    between atoms: _128  and  _131
REMARK   55  A    between atoms: _134  and  _136
REMARK   56  A    between atoms: _136  and  _137
REMARK   57  A    between atoms: _136  and  _139
REMARK   58  A    between atoms: _139  and  _140
REMARK   59  A    between atoms: _145  and  _146
REMARK   60  A    between atoms: _148  and  _150
REMARK   61  A    between atoms: _150  and  _151
REMARK   62  A    between atoms: _150  and  _153
REMARK   63  A    between atoms: _153  and  _154
REMARK   64  A    between atoms: _156  and  _158
REMARK   65  A    between atoms: _158  and  _159
REMARK   66  A    between atoms: _158  and  _161
REMARK   67  A    between atoms: _161  and  _162
REMARK   68  A    between atoms: _162  and  _163
REMARK   69  A    between atoms: _166  and  _168
REMARK   70  A    between atoms: _168  and  _169
REMARK   71  A    between atoms: _168  and  _171
REMARK   72  A    between atoms: _171  and  _172
REMARK   73  A    between atoms: _175  and  _177
REMARK   74  A    between atoms: _177  and  _178
REMARK   75  A    between atoms: _177  and  _180
REMARK   76  A    between atoms: _180  and  _181
REMARK   77  A    between atoms: _181  and  _182
REMARK   78  A    between atoms: _187  and  _189
REMARK   79  A    between atoms: _189  and  _190
REMARK   80  A    between atoms: _189  and  _192
REMARK   81  A    between atoms: _192  and  _193
REMARK   82  A    between atoms: _193  and  _194
REMARK   83  A    between atoms: _199  and  _201
REMARK   84  A    between atoms: _201  and  _202
REMARK   85  A    between atoms: _201  and  _204
REMARK   86  A    between atoms: _204  and  _205
REMARK   87  A    between atoms: _210  and  _212
REMARK   88  A    between atoms: _212  and  _213
REMARK   89  A    between atoms: _212  and  _215
REMARK   90  A    between atoms: _215  and  _216
REMARK   91  A    between atoms: _221  and  _222
REMARK   92  A    between atoms: _224  and  _226
REMARK   93  A    between atoms: _226  and  _227
REMARK   94  A    between atoms: _226  and  _229
REMARK   95  A    between atoms: _229  and  _230
REMARK   96  A    between atoms: _232  and  _234
REMARK   97  A    between atoms: _241  and  _242
REMARK   98  A    between atoms: _247  and  _248
REMARK   99  A    between atoms: _253  and  _255
REMARK  100  A    between atoms: _255  and  _256
REMARK  101  A    between atoms: _255  and  _258
REMARK  102  A    between atoms: _258  and  _259
REMARK  103  A    between atoms: _259  and  _260
REMARK  104  A    between atoms: _264  and  _265
REMARK  105  A    between atoms: _270  and  _272
REMARK  106  A    between atoms: _272  and  _273
REMARK  107  A    between atoms: _272  and  _275
REMARK  108  A    between atoms: _275  and  _276
REMARK  109  A    between atoms: _281  and  _282
REMARK  110  A    between atoms: _284  and  _286
REMARK  111  A    between atoms: _286  and  _287
REMARK  112  A    between atoms: _286  and  _289
REMARK  113  A    between atoms: _289  and  _290
REMARK  114  A    between atoms: _293  and  _295
REMARK  115  A    between atoms: _295  and  _296
REMARK  116  A    between atoms: _295  and  _298
REMARK  117  A    between atoms: _298  and  _299
REMARK  118  A    between atoms: _302  and  _304
REMARK  119  A    between atoms: _304  and  _305
REMARK  120  A    between atoms: _304  and  _307
REMARK  121  A    between atoms: _310  and  _312
REMARK  122  A    between atoms: _312  and  _313
REMARK  123  A    between atoms: _312  and  _315
REMARK  124  A    between atoms: _315  and  _316
REMARK  125  A    between atoms: _321  and  _323
REMARK  126  A    between atoms: _323  and  _324
REMARK  127  A    between atoms: _323  and  _326
REMARK  128  A    between atoms: _326  and  _327
REMARK  129  A    between atoms: _330  and  _332
REMARK  130  A    between atoms: _332  and  _333
REMARK  131  A    between atoms: _332  and  _335
REMARK  132  A    between atoms: _335  and  _336
REMARK  133  A    between atoms: _336  and  _337
REMARK  134  A    between atoms: _342  and  _344
REMARK  135  A    between atoms: _344  and  _345
REMARK  136  A    between atoms: _344  and  _347
REMARK  137  A    between atoms: _347  and  _348
REMARK  138  A    between atoms: _353  and  _354
REMARK  139  A    between atoms: _356  and  _358
REMARK  140  A    between atoms: _358  and  _359
REMARK  141  A    between atoms: _358  and  _361
REMARK  142  A    between atoms: _361  and  _362
REMARK  143  A    between atoms: _362  and  _363
REMARK  144  A    between atoms: _366  and  _368
REMARK  145  A    between atoms: _368  and  _369
REMARK  146  A    between atoms: _368  and  _371
REMARK  147  A    between atoms: _371  and  _372
REMARK  148  A    between atoms: _372  and  _373
REMARK  149  A    between atoms: _378  and  _380
REMARK  150  A    between atoms: _380  and  _381
REMARK  151  A    between atoms: _380  and  _383
REMARK  152  A    between atoms: _383  and  _384
REMARK  153  A    between atoms: _384  and  _385
REMARK  154  A    between atoms: _390  and  _392
REMARK  155  A    between atoms: _392  and  _393
REMARK  156  A    between atoms: _392  and  _395
REMARK  157  A    between atoms: _395  and  _396
REMARK  158  A    between atoms: _396  and  _397
REMARK  159  A    between atoms: _397  and  _398
REMARK  160  A    between atoms: _407  and  _409
REMARK  161  A    between atoms: _409  and  _410
REMARK  162  A    between atoms: _409  and  _412
REMARK  163  A    between atoms: _412  and  _413
REMARK  164  A    between atoms: _416  and  _418
REMARK  165  A    between atoms: _418  and  _419
REMARK  166  A    between atoms: _418  and  _421
REMARK  167  A    between atoms: _421  and  _422
REMARK  168  A    between atoms: _428  and  _430
REMARK  169  A    between atoms: _430  and  _431
REMARK  170  A    between atoms: _430  and  _433
REMARK  171  A    between atoms: _433  and  _434
REMARK  172  A    between atoms: _434  and  _435
REMARK  173  A    between atoms: _435  and  _436
REMARK  174  A    between atoms: _445  and  _447
REMARK  175  A    between atoms: _447  and  _448
REMARK  176  A    between atoms: _447  and  _450
REMARK  177  A    between atoms: _450  and  _451
REMARK  178  A    between atoms: _454  and  _456
REMARK  179  A    between atoms: _456  and  _457
REMARK  180  A    between atoms: _456  and  _459
REMARK  181  A    between atoms: _459  and  _460
REMARK  182  A    between atoms: _463  and  _464
REMARK  183  A    between atoms: _469  and  _471
REMARK  184  A    between atoms: _471  and  _472
REMARK  185  A    between atoms: _471  and  _474
REMARK  186  A    between atoms: _474  and  _475
REMARK  187  A    between atoms: _478  and  _480
REMARK  188  A    between atoms: _480  and  _481
REMARK  189  A    between atoms: _484  and  _486
REMARK  190  A    between atoms: _486  and  _487
REMARK  191  A    between atoms: _486  and  _489
REMARK  192  A    between atoms: _492  and  _494
REMARK  193  A    between atoms: _494  and  _495
REMARK  194  A    between atoms: _494  and  _497
REMARK  195  A    between atoms: _500  and  _502
REMARK  196  A    between atoms: _502  and  _503
REMARK  197  A    between atoms: _502  and  _505
REMARK  198  A    between atoms: _505  and  _506
REMARK  199  A    between atoms: _509  and  _511
REMARK  200  A    between atoms: _511  and  _512
REMARK  201  A    between atoms: _511  and  _514
REMARK  202  A    between atoms: _517  and  _519
REMARK  203  A    between atoms: _519  and  _520
REMARK  204  A    between atoms: _519  and  _522
REMARK  205  A    between atoms: _522  and  _523
REMARK  206  A    between atoms: _523  and  _524
REMARK  207  A    between atoms: _526  and  _528
REMARK  208  A    between atoms: _528  and  _529
REMARK  209  A    between atoms: _528  and  _531
REMARK  210  A    between atoms: _531  and  _532
REMARK  211  A    between atoms: _538  and  _540
REMARK  212  A    between atoms: _540  and  _541
REMARK  213  A    between atoms: _540  and  _543
REMARK  214  A    between atoms: _543  and  _544
REMARK  215  A    between atoms: _548  and  _549
REMARK  216  A    between atoms: _554  and  _556
REMARK  217  A    between atoms: _556  and  _557
REMARK  218  A    between atoms: _560  and  _562
REMARK  219  A    between atoms: _562  and  _563
REMARK  220  A    between atoms: _562  and  _565
REMARK  221  A    between atoms: _565  and  _566
REMARK                            x       y       z     vdW  Elec       q    Type
REMARK                         _______ _______ _______ _____ _____    ______ ____
ROOT
ATOM      1  C   ALA A   4      -8.945  18.537  -4.580  0.00  0.00    +0.241 C 
ATOM      2  O   ALA A   4      -8.846  17.795  -3.599  0.00  0.00    -0.273 OA
ATOM      3  N   TYR A   5      -9.865  19.498  -4.676  0.00  0.00    -0.297 N 
ATOM      4  H   TYR A   5      -9.947  20.027  -5.568  0.00  0.00    +0.150 HD
ENDROOT
BRANCH   1   5
ATOM      5  CA  ALA A   4      -7.981  18.394  -5.761  0.00  0.00    +0.149 C 
ATOM      6  CB  ALA A   4      -8.340  17.181  -6.599  0.00  0.00    +0.031 C 
BRANCH   5   9
ATOM      7  C   THR A   3      -5.911  19.339  -4.854  0.00  0.00    +0.243 C 
ATOM      8  O   THR A   3      -6.292  20.495  -4.996  0.00  0.00    -0.273 OA
ATOM      9  N   ALA A   4      -6.609  18.285  -5.272  0.00  0.00    -0.297 N 
ATOM     10  H   ALA A   4      -6.160  17.347  -5.249  0.00  0.00    +0.150 HD
BRANCH   7  11
ATOM     11  CA  THR A   3      -4.568  19.044  -4.180  0.00  0.00    +0.176 C 
BRANCH  11  13
ATOM     12  C   ILE A   2      -2.333  19.779  -4.878  0.00  0.00    +0.241 C 
ATOM     13  N   THR A   3      -3.594  20.059  -4.550  0.00  0.00    -0.295 N 
ATOM     14  H   THR A   3      -3.897  21.054  -4.559  0.00  0.00    +0.150 HD
ATOM     15  O   ILE A   2      -1.912  18.641  -5.110  0.00  0.00    -0.273 OA
BRANCH  12  16
ATOM     16  CA  ILE A   2      -1.406  20.974  -4.970  0.00  0.00    +0.148 C 
BRANCH  16  19
ATOM     17  C   ASP A   1      -0.343  20.761  -2.793  0.00  0.00    +0.239 C 
ATOM     18  O   ASP A   1      -1.413  20.893  -2.193  0.00  0.00    -0.274 OA
ATOM     19  N   ILE A   2      -0.250  20.739  -4.119  0.00  0.00    -0.297 N 
ATOM     20  H   ILE A   2       0.673  20.549  -4.559  0.00  0.00    +0.150 HD
BRANCH  17  21
ATOM     21  CA  ASP A   1       0.968  20.585  -2.039  0.00  0.00    +0.156 C 
BRANCH  21  22
ATOM     22  N   ASP A   1       1.965  21.556  -2.488  0.00  0.00    -0.238 NA
ATOM     23  H   ASP A   1       2.027  22.473  -2.002  0.00  0.00    +0.142 HD
ENDBRANCH  21  22
BRANCH  21  24
ATOM     24  CB  ASP A   1       0.757  20.701  -0.523  0.00  0.00    +0.140 C 
BRANCH  24  25
ATOM     25  CG  ASP A   1       0.063  21.986  -0.121  0.00  0.00    +0.367 C 
ATOM     26  OD2 ASP A   1      -0.827  21.919   0.757  0.00  0.00    -0.246 OA
ATOM     27  OD1 ASP A   1       0.408  23.046  -0.696  0.00  0.00    -0.246 OA
ENDBRANCH  24  25
ENDBRANCH  21  24
ENDBRANCH  17  21
ENDBRANCH  16  19
BRANCH  16  28
ATOM     28  CB  ILE A   2      -1.019  21.218  -6.445  0.00  0.00    +0.027 C 
ATOM     29  CG2 ILE A   2      -2.279  21.490  -7.284  0.00  0.00    +0.002 C 
BRANCH  28  30
ATOM     30  CG1 ILE A   2      -0.019  22.380  -6.566  0.00  0.00    +0.002 C 
ATOM     31  CD1 ILE A   2      -0.498  23.703  -5.967  0.00  0.00    +0.000 C 
ENDBRANCH  28  30
ENDBRANCH  16  28
ENDBRANCH  12  16
ENDBRANCH  11  13
BRANCH  11  32
ATOM     32  CB  THR A   3      -4.760  19.024  -2.630  0.00  0.00    +0.137 C 
ATOM     33  CG2 THR A   3      -5.552  17.818  -2.175  0.00  0.00    +0.034 C 
BRANCH  32  34
ATOM     34  OG1 THR A   3      -3.480  19.000  -1.986  0.00  0.00    -0.382 OA
ATOM     35  HG1 THR A   3      -2.986  18.190  -2.267  0.00  0.00    +0.210 HD
ENDBRANCH  32  34
ENDBRANCH  11  32
ENDBRANCH   7  11
ENDBRANCH   5   9
ENDBRANCH   1   5
BRANCH   3  36
ATOM     36  CA  TYR A   5     -10.762  19.833  -3.571  0.00  0.00    +0.153 C 
BRANCH  36  37
ATOM     37  C   TYR A   5     -11.793  18.739  -3.334  0.00  0.00    +0.241 C 
ATOM     38  O   TYR A   5     -12.165  18.471  -2.190  0.00  0.00    -0.273 OA
ATOM     39  N   SER A   6     -12.233  18.104  -4.419  0.00  0.00    -0.295 N 
ATOM     40  H   SER A   6     -11.740  18.262  -5.321  0.00  0.00    +0.150 HD
BRANCH  39  41
ATOM     41  CA  SER A   6     -13.376  17.196  -4.400  0.00  0.00    +0.178 C 
BRANCH  41  42
ATOM     42  C   SER A   6     -13.046  15.756  -4.825  0.00  0.00    +0.243 C 
ATOM     43  N   SER A   7     -11.804  15.325  -4.620  0.00  0.00    -0.296 N 
ATOM     44  H   SER A   7     -11.077  15.998  -4.302  0.00  0.00    +0.150 HD
ATOM     45  O   SER A   6     -13.917  15.033  -5.315  0.00  0.00    -0.273 OA
BRANCH  43  46
ATOM     46  CA  SER A   7     -11.436  13.912  -4.834  0.00  0.00    +0.166 C 
BRANCH  46  47
ATOM     47  C   SER A   7     -12.212  13.019  -3.880  0.00  0.00    +0.229 C 
ATOM     48  O   SER A   7     -12.498  13.418  -2.753  0.00  0.00    -0.286 OA
ENDBRANCH  46  47
BRANCH  46  49
ATOM     49  CB  SER A   7      -9.932  13.676  -4.615  0.00  0.00    +0.165 C 
BRANCH  49  50
ATOM     50  OG  SER A   7      -9.615  13.558  -3.234  0.00  0.00    -0.380 OA
ATOM     51  H   SER A   7      -8.642  13.407  -3.132  0.00  0.00    +0.211 HD
ENDBRANCH  49  50
ENDBRANCH  46  49
ENDBRANCH  43  46
ENDBRANCH  41  42
BRANCH  41  52
ATOM     52  CB  SER A   6     -14.466  17.768  -5.301  0.00  0.00    +0.166 C 
BRANCH  52  53
ATOM     53  OG  SER A   6     -13.982  17.952  -6.618  0.00  0.00    -0.380 OA
ATOM     54  H   SER A   6     -14.704  18.323  -7.185  0.00  0.00    +0.211 HD
ENDBRANCH  52  53
ENDBRANCH  41  52
ENDBRANCH  39  41
ENDBRANCH  36  37
BRANCH  36  55
ATOM     55  CB  TYR A   5     -11.478  21.165  -3.845  0.00  0.00    +0.055 C 
BRANCH  55  56
ATOM     56  CG  TYR A   5     -12.374  21.637  -2.720  0.00  0.00    -0.020 A 
ATOM     57  CD2 TYR A   5     -11.832  22.184  -1.572  0.00  0.00    -0.001 A 
ATOM     58  CE2 TYR A   5     -12.637  22.621  -0.528  0.00  0.00    +0.036 A 
ATOM     59  CZ  TYR A   5     -14.009  22.514  -0.615  0.00  0.00    +0.134 A 
ATOM     60  CE1 TYR A   5     -14.591  21.962  -1.752  0.00  0.00    +0.036 A 
ATOM     61  CD1 TYR A   5     -13.770  21.528  -2.801  0.00  0.00    -0.001 A 
BRANCH  59  62
ATOM     62  OH  TYR A   5     -14.774  22.956   0.452  0.00  0.00    -0.506 OA
ATOM     63  HH  TYR A   5     -14.530  22.446   1.265  0.00  0.00    +0.292 HD
ENDBRANCH  59  62
ENDBRANCH  55  56
ENDBRANCH  36  55
ENDBRANCH   3  36
TORSDOF 27
REMARK  Name = ../refined-set-2016/2bys/2bys_pocket.pdb
REMARK  221 active torsions:
REMARK  status: ('A' for Active; 'I' for Inactive)
REMARK    1  A    between atoms: _1  and  _3
REMARK    2  A    between atoms: _3  and  _4
REMARK    3  A    between atoms: _3  and  _6
REMARK    4  A    between atoms: _6  and  _7
REMARK    5  A    between atoms: _10  and  _12
REMARK    6  A    between atoms: _12  and  _13
REMARK    7  A    between atoms: _12  and  _15
REMARK    8  A    between atoms: _15  and  _16
REMARK    9  A    between atoms: _19  and  _21
REMARK   10  A    between atoms: _21  and  _22
REMARK   11  A    between atoms: _21  and  _24
REMARK   12  A    between atoms: _24  and  _25
REMARK   13  A    between atoms: _28  and  _30
REMARK   14  A    between atoms: _30  and  _31
REMARK   15  A    between atoms: _34  and  _36
REMARK   16  A    between atoms: _36  and  _37
REMARK   17  A    between atoms: _36  and  _39
REMARK   18  A    between atoms: _39  and  _40
REMARK   19  A    between atoms: _45  and  _46
REMARK   20  A    between atoms: _48  and  _50
REMARK   21  A    between atoms: _50  and  _51
REMARK   22  A    between atoms: _50  and  _53
REMARK   23  A    between atoms: _53  and  _54
REMARK   24  A    between atoms: _56  and  _58
REMARK   25  A    between atoms: _58  and  _59
REMARK   26  A    between atoms: _58  and  _61
REMARK   27  A    between atoms: _61  and  _62
REMARK   28  A    between atoms: _64  and  _66
REMARK   29  A    between atoms: _66  and  _67
REMARK   30  A    between atoms: _66  and  _69
REMARK   31  A    between atoms: _72  and  _74
REMARK   32  A    between atoms: _74  and  _75
REMARK   33  A    between atoms: _74  and  _77
REMARK   34  A    between atoms: _77  and  _78
REMARK   35  A    between atoms: _78  and  _79
REMARK   36  A    between atoms: _79  and  _80
REMARK   37  A    between atoms: _80  and  _81
REMARK   38  A    between atoms: _85  and  _87
REMARK   39  A    between atoms: _87  and  _88
REMARK   40  A    between atoms: _87  and  _90
REMARK   41  A    between atoms: _90  and  _91
REMARK   42  A    between atoms: _97  and  _99
REMARK   43  A    between atoms: _99  and  _100
REMARK   44  A    between atoms: _102  and  _104
REMARK   45  A    between atoms: _104  and  _105
REMARK   46  A    between atoms: _104  and  _107
REMARK   47  A    between atoms: _107  and  _108
REMARK   48  A    between atoms: _110  and  _112
REMARK   49  A    between atoms: _112  and  _113
REMARK   50  A    between atoms: _112  and  _115
REMARK   51  A    between atoms: _115  and  _116
REMARK   52  A    between atoms: _126  and  _128
REMARK   53  A    between atoms: _128  and  _129
REMARK   54  A    between atoms: _128  and  _131
REMARK   55  A    between atoms: _134  and  _136
REMARK   56  A    between atoms: _136  and  _137
REMARK   57  A    between atoms: _136  and  _139
REMARK   58  A    between atoms: _139  and  _140
REMARK   59  A    between atoms: _145  and  _146
REMARK   60  A    between atoms: _148  and  _150
REMARK   61  A    between atoms: _150  and  _151
REMARK   62  A    between atoms: _150  and  _153
REMARK   63  A    between atoms: _153  and  _154
REMARK   64  A    between atoms: _156  and  _158
REMARK   65  A    between atoms: _158  and  _159
REMARK   66  A    between atoms: _158  and  _161
REMARK   67  A    between atoms: _161  and  _162
REMARK   68  A    between atoms: _162  and  _163
REMARK   69  A    between atoms: _166  and  _168
REMARK   70  A    between atoms: _168  and  _169
REMARK   71  A    between atoms: _168  and  _171
REMARK   72  A    between atoms: _171  and  _172
REMARK   73  A    between atoms: _175  and  _177
REMARK   74  A    between atoms: _177  and  _178
REMARK   75  A    between atoms: _177  and  _180
REMARK   76  A    between atoms: _180  and  _181
REMARK   77  A    between atoms: _181  and  _182
REMARK   78  A    between atoms: _187  and  _189
REMARK   79  A    between atoms: _189  and  _190
REMARK   80  A    between atoms: _189  and  _192
REMARK   81  A    between atoms: _192  and  _193
REMARK   82  A    between atoms: _193  and  _194
REMARK   83  A    between atoms: _199  and  _201
REMARK   84  A    between atoms: _201  and  _202
REMARK   85  A    between atoms: _201  and  _204
REMARK   86  A    between atoms: _204  and  _205
REMARK   87  A    between atoms: _210  and  _212
REMARK   88  A    between atoms: _212  and  _213
REMARK   89  A    between atoms: _212  and  _215
REMARK   90  A    between atoms: _215  and  _216
REMARK   91  A    between atoms: _221  and  _222
REMARK   92  A    between atoms: _224  and  _226
REMARK   93  A    between atoms: _226  and  _227
REMARK   94  A    between atoms: _226  and  _229
REMARK   95  A    between atoms: _229  and  _230
REMARK   96  A    between atoms: _232  and  _234
REMARK   97  A    between atoms: _241  and  _242
REMARK   98  A    between atoms: _247  and  _248
REMARK   99  A    between atoms: _253  and  _255
REMARK  100  A    between atoms: _255  and  _256
REMARK  101  A    between atoms: _255  and  _258
REMARK  102  A    between atoms: _258  and  _259
REMARK  103  A    between atoms: _259  and  _260
REMARK  104  A    between atoms: _264  and  _265
REMARK  105  A    between atoms: _270  and  _272
REMARK  106  A    between atoms: _272  and  _273
REMARK  107  A    between atoms: _272  and  _275
REMARK  108  A    between atoms: _275  and  _276
REMARK  109  A    between atoms: _281  and  _282
REMARK  110  A    between atoms: _284  and  _286
REMARK  111  A    between atoms: _286  and  _287
REMARK  112  A    between atoms: _286  and  _289
REMARK  113  A    between atoms: _289  and  _290
REMARK  114  A    between atoms: _293  and  _295
REMARK  115  A    between atoms: _295  and  _296
REMARK  116  A    between atoms: _295  and  _298
REMARK  117  A    between atoms: _298  and  _299
REMARK  118  A    between atoms: _302  and  _304
REMARK  119  A    between atoms: _304  and  _305
REMARK  120  A    between atoms: _304  and  _307
REMARK  121  A    between atoms: _310  and  _312
REMARK  122  A    between atoms: _312  and  _313
REMARK  123  A    between atoms: _312  and  _315
REMARK  124  A    between atoms: _315  and  _316
REMARK  125  A    between atoms: _321  and  _323
REMARK  126  A    between atoms: _323  and  _324
REMARK  127  A    between atoms: _323  and  _326
REMARK  128  A    between atoms: _326  and  _327
REMARK  129  A    between atoms: _330  and  _332
REMARK  130  A    between atoms: _332  and  _333
REMARK  131  A    between atoms: _332  and  _335
REMARK  132  A    between atoms: _335  and  _336
REMARK  133  A    between atoms: _336  and  _337
REMARK  134  A    between atoms: _342  and  _344
REMARK  135  A    between atoms: _344  and  _345
REMARK  136  A    between atoms: _344  and  _347
REMARK  137  A    between atoms: _347  and  _348
REMARK  138  A    between atoms: _353  and  _354
REMARK  139  A    between atoms: _356  and  _358
REMARK  140  A    between atoms: _358  and  _359
REMARK  141  A    between atoms: _358  and  _361
REMARK  142  A    between atoms: _361  and  _362
REMARK  143  A    between atoms: _362  and  _363
REMARK  144  A    between atoms: _366  and  _368
REMARK  145  A    between atoms: _368  and  _369
REMARK  146  A    between atoms: _368  and  _371
REMARK  147  A    between atoms: _371  and  _372
REMARK  148  A    between atoms: _372  and  _373
REMARK  149  A    between atoms: _378  and  _380
REMARK  150  A    between atoms: _380  and  _381
REMARK  151  A    between atoms: _380  and  _383
REMARK  152  A    between atoms: _383  and  _384
REMARK  153  A    between atoms: _384  and  _385
REMARK  154  A    between atoms: _390  and  _392
REMARK  155  A    between atoms: _392  and  _393
REMARK  156  A    between atoms: _392  and  _395
REMARK  157  A    between atoms: _395  and  _396
REMARK  158  A    between atoms: _396  and  _397
REMARK  159  A    between atoms: _397  and  _398
REMARK  160  A    between atoms: _407  and  _409
REMARK  161  A    between atoms: _409  and  _410
REMARK  162  A    between atoms: _409  and  _412
REMARK  163  A    between atoms: _412  and  _413
REMARK  164  A    between atoms: _416  and  _418
REMARK  165  A    between atoms: _418  and  _419
REMARK  166  A    between atoms: _418  and  _421
REMARK  167  A    between atoms: _421  and  _422
REMARK  168  A    between atoms: _428  and  _430
REMARK  169  A    between atoms: _430  and  _431
REMARK  170  A    between atoms: _430  and  _433
REMARK  171  A    between atoms: _433  and  _434
REMARK  172  A    between atoms: _434  and  _435
REMARK  173  A    between atoms: _435  and  _436
REMARK  174  A    between atoms: _445  and  _447
REMARK  175  A    between atoms: _447  and  _448
REMARK  176  A    between atoms: _447  and  _450
REMARK  177  A    between atoms: _450  and  _451
REMARK  178  A    between atoms: _454  and  _456
REMARK  179  A    between atoms: _456  and  _457
REMARK  180  A    between atoms: _456  and  _459
REMARK  181  A    between atoms: _459  and  _460
REMARK  182  A    between atoms: _463  and  _464
REMARK  183  A    between atoms: _469  and  _471
REMARK  184  A    between atoms: _471  and  _472
REMARK  185  A    between atoms: _471  and  _474
REMARK  186  A    between atoms: _474  and  _475
REMARK  187  A    between atoms: _478  and  _480
REMARK  188  A    between atoms: _480  and  _481
REMARK  189  A    between atoms: _484  and  _486
REMARK  190  A    between atoms: _486  and  _487
REMARK  191  A    between atoms: _486  and  _489
REMARK  192  A    between atoms: _492  and  _494
REMARK  193  A    between atoms: _494  and  _495
REMARK  194  A    between atoms: _494  and  _497
REMARK  195  A    between atoms: _500  and  _502
REMARK  196  A    between atoms: _502  and  _503
REMARK  197  A    between atoms: _502  and  _505
REMARK  198  A    between atoms: _505  and  _506
REMARK  199  A    between atoms: _509  and  _511
REMARK  200  A    between atoms: _511  and  _512
REMARK  201  A    between atoms: _511  and  _514
REMARK  202  A    between atoms: _517  and  _519
REMARK  203  A    between atoms: _519  and  _520
REMARK  204  A    between atoms: _519  and  _522
REMARK  205  A    between atoms: _522  and  _523
REMARK  206  A    between atoms: _523  and  _524
REMARK  207  A    between atoms: _526  and  _528
REMARK  208  A    between atoms: _528  and  _529
REMARK  209  A    between atoms: _528  and  _531
REMARK  210  A    between atoms: _531  and  _532
REMARK  211  A    between atoms: _538  and  _540
REMARK  212  A    between atoms: _540  and  _541
REMARK  213  A    between atoms: _540  and  _543
REMARK  214  A    between atoms: _543  and  _544
REMARK  215  A    between atoms: _548  and  _549
REMARK  216  A    between atoms: _554  and  _556
REMARK  217  A    between atoms: _556  and  _557
REMARK  218  A    between atoms: _560  and  _562
REMARK  219  A    between atoms: _562  and  _563
REMARK  220  A    between atoms: _562  and  _565
REMARK  221  A    between atoms: _565  and  _566
REMARK                            x       y       z     vdW  Elec       q    Type
REMARK                         _______ _______ _______ _____ _____    ______ ____
ROOT
ATOM      1  C   SER A   5      -3.603  24.001  -0.989  0.00  0.00    +0.243 C 
ATOM      2  N   TRP A   6      -3.395  22.877  -0.304  0.00  0.00    -0.297 N 
ATOM      3  H   TRP A   6      -2.607  22.253  -0.569  0.00  0.00    +0.150 HD
ATOM      4  O   SER A   5      -4.526  24.781  -0.745  0.00  0.00    -0.273 OA
ENDROOT
BRANCH   2   5
ATOM      5  CA  TRP A   6      -4.255  22.514   0.806  0.00  0.00    +0.153 C 
BRANCH   5   6
ATOM      6  C   TRP A   6      -4.053  23.451   1.984  0.00  0.00    +0.241 C 
ATOM      7  O   TRP A   6      -5.026  23.886   2.570  0.00  0.00    -0.273 OA
ATOM      8  N   VAL A   7      -2.803  23.789   2.304  0.00  0.00    -0.297 N 
ATOM      9  H   VAL A   7      -2.025  23.530   1.664  0.00  0.00    +0.150 HD
BRANCH   8  10
ATOM     10  CA  VAL A   7      -2.504  24.516   3.537  0.00  0.00    +0.149 C 
BRANCH  10  11
ATOM     11  C   VAL A   7      -1.954  25.921   3.365  0.00  0.00    +0.241 C 
ATOM     12  O   VAL A   7      -1.824  26.624   4.354  0.00  0.00    -0.273 OA
ATOM     13  N   TYR A   8      -1.625  26.340   2.144  0.00  0.00    -0.297 N 
ATOM     14  H   TYR A   8      -1.744  25.698   1.335  0.00  0.00    +0.150 HD
BRANCH  13  15
ATOM     15  CA  TYR A   8      -1.099  27.688   1.921  0.00  0.00    +0.153 C 
BRANCH  15  16
ATOM     16  C   TYR A   8      -2.147  28.593   1.282  0.00  0.00    +0.241 C 
ATOM     17  N   SER A   9      -2.390  29.736   1.925  0.00  0.00    -0.296 N 
ATOM     18  H   SER A   9      -1.884  29.924   2.814  0.00  0.00    +0.150 HD
ATOM     19  O   TYR A   8      -2.715  28.265   0.235  0.00  0.00    -0.273 OA
BRANCH  17  20
ATOM     20  CA  SER A   9      -3.337  30.735   1.434  0.00  0.00    +0.166 C 
BRANCH  20  21
ATOM     21  C   SER A   9      -2.713  31.538   0.307  0.00  0.00    +0.229 C 
ATOM     22  O   SER A   9      -1.524  31.394   0.026  0.00  0.00    -0.286 OA
ENDBRANCH  20  21
BRANCH  20  23
ATOM     23  CB  SER A   9      -3.728  31.690   2.565  0.00  0.00    +0.165 C 
BRANCH  23  24
ATOM     24  OG  SER A   9      -2.640  32.532   2.906  0.00  0.00    -0.380 OA
ATOM     25  H   SER A   9      -1.876  31.978   3.204  0.00  0.00    +0.211 HD
ENDBRANCH  23  24
ENDBRANCH  20  23
ENDBRANCH  17  20
ENDBRANCH  15  16
BRANCH  15  26
ATOM     26  CB  TYR A   8       0.158  27.647   1.052  0.00  0.00    +0.055 C 
BRANCH  26  27
ATOM     27  CG  TYR A   8       1.353  26.996   1.712  0.00  0.00    -0.020 A 
ATOM     28  CD2 TYR A   8       2.071  27.658   2.686  0.00  0.00    -0.001 A 
ATOM     29  CE2 TYR A   8       3.173  27.076   3.287  0.00  0.00    +0.036 A 
ATOM     30  CZ  TYR A   8       3.574  25.811   2.911  0.00  0.00    +0.134 A 
ATOM     31  CE1 TYR A   8       2.868  25.126   1.940  0.00  0.00    +0.036 A 
ATOM     32  CD1 TYR A   8       1.771  25.720   1.346  0.00  0.00    -0.001 A 
BRANCH  30  33
ATOM     33  OH  TYR A   8       4.675  25.229   3.507  0.00  0.00    -0.506 OA
ATOM     34  HH  TYR A   8       5.057  25.854   4.173  0.00  0.00    +0.292 HD
ENDBRANCH  30  33
ENDBRANCH  26  27
ENDBRANCH  15  26
ENDBRANCH  13  15
ENDBRANCH  10  11
BRANCH  10  35
ATOM     35  CB  VAL A   7      -1.534  23.718   4.446  0.00  0.00    +0.027 C 
ATOM     36  CG2 VAL A   7      -2.160  22.399   4.842  0.00  0.00    +0.002 C 
ATOM     37  CG1 VAL A   7      -0.198  23.481   3.763  0.00  0.00    +0.002 C 
ENDBRANCH  10  35
ENDBRANCH   8  10
ENDBRANCH   5   6
BRANCH   5  38
ATOM     38  CB  TRP A   6      -4.048  21.060   1.246  0.00  0.00    +0.057 C 
BRANCH  38  39
ATOM     39  CG  TRP A   6      -5.160  20.569   2.130  0.00  0.00    -0.002 A 
ATOM     40  CD1 TRP A   6      -5.122  20.425   3.483  0.00  0.00    +0.068 A 
ATOM     41  NE1 TRP A   6      -6.332  19.977   3.948  0.00  0.00    -0.352 N 
ATOM     42  HE1 TRP A   6      -6.561  19.779   4.943  0.00  0.00    +0.166 HD
ATOM     43  CE2 TRP A   6      -7.189  19.833   2.891  0.00  0.00    +0.056 A 
ATOM     44  CZ2 TRP A   6      -8.521  19.401   2.860  0.00  0.00    +0.017 A 
ATOM     45  CH2 TRP A   6      -9.140  19.348   1.638  0.00  0.00    +0.001 A 
ATOM     46  CZ3 TRP A   6      -8.466  19.713   0.461  0.00  0.00    +0.000 A 
ATOM     47  CE3 TRP A   6      -7.141  20.135   0.491  0.00  0.00    +0.001 A 
ATOM     48  CD2 TRP A   6      -6.483  20.197   1.726  0.00  0.00    +0.013 A 
ENDBRANCH  38  39
ENDBRANCH   5  38
ENDBRANCH   2   5
BRANCH   1  49
ATOM     49  CA  SER A   5      -2.637  24.301  -2.119  0.00  0.00    +0.178 C 
BRANCH  49  51
ATOM     50  C   GLY A   4      -4.144  23.757  -3.926  0.00  0.00    +0.243 C 
ATOM     51  N   SER A   5      -3.400  24.657  -3.298  0.00  0.00    -0.295 N 
ATOM     52  H   SER A   5      -3.364  25.632  -3.657  0.00  0.00    +0.150 HD
ATOM     53  O   GLY A   4      -4.156  22.561  -3.626  0.00  0.00    -0.273 OA
BRANCH  50  54
ATOM     54  CA  GLY A   4      -4.980  24.285  -5.068  0.00  0.00    +0.176 C 
BRANCH  54  56
ATOM     55  C   PHE A   3      -6.309  23.477  -6.931  0.00  0.00    +0.241 C 
ATOM     56  N   GLY A   4      -5.674  23.228  -5.792  0.00  0.00    -0.295 N 
ATOM     57  H   GLY A   4      -5.672  22.261  -5.410  0.00  0.00    +0.150 HD
ATOM     58  O   PHE A   3      -6.342  24.592  -7.447  0.00  0.00    -0.273 OA
BRANCH  55  59
ATOM     59  CA  PHE A   3      -6.993  22.297  -7.607  0.00  0.00    +0.153 C 
BRANCH  59  62
ATOM     60  C   LYS A   2      -9.436  22.165  -7.785  0.00  0.00    +0.241 C 
ATOM     61  O   LYS A   2      -9.544  21.223  -6.994  0.00  0.00    -0.273 OA
ATOM     62  N   PHE A   3      -8.282  22.748  -8.098  0.00  0.00    -0.297 N 
ATOM     63  H   PHE A   3      -8.305  23.573  -8.730  0.00  0.00    +0.150 HD
BRANCH  60  64
ATOM     64  CA  LYS A   2     -10.656  22.737  -8.507  0.00  0.00    +0.149 C 
BRANCH  64  66
ATOM     65  C   VAL A   1     -11.823  21.090  -9.889  0.00  0.00    +0.238 C 
ATOM     66  N   LYS A   2     -11.672  21.702  -8.716  0.00  0.00    -0.297 N 
ATOM     67  H   LYS A   2     -12.293  21.438  -7.925  0.00  0.00    +0.150 HD
ATOM     68  O   VAL A   1     -11.121  21.326 -10.859  0.00  0.00    -0.274 OA
BRANCH  65  69
ATOM     69  CA  VAL A   1     -12.943  20.059  -9.985  0.00  0.00    +0.145 C 
BRANCH  69  70
ATOM     70  CB  VAL A   1     -12.383  18.599 -10.069  0.00  0.00    +0.025 C 
ATOM     71  CG2 VAL A   1     -11.366  18.318  -8.943  0.00  0.00    +0.002 C 
ATOM     72  CG1 VAL A   1     -11.775  18.299 -11.446  0.00  0.00    +0.002 C 
ENDBRANCH  69  70
BRANCH  69  73
ATOM     73  N   VAL A   1     -13.748  20.389 -11.137  0.00  0.00    -0.238 NA
ATOM     74  H   VAL A   1     -13.298  20.878 -11.937  0.00  0.00    +0.142 HD
ENDBRANCH  69  73
ENDBRANCH  65  69
ENDBRANCH  64  66
BRANCH  64  75
ATOM     75  CB  LYS A   2     -11.217  23.977  -7.779  0.00  0.00    +0.029 C 
BRANCH  75  76
ATOM     76  CG  LYS A   2     -12.062  23.705  -6.557  0.00  0.00    +0.000 C 
BRANCH  76  77
ATOM     77  CD  LYS A   2     -12.447  24.992  -5.834  0.00  0.00    -0.024 C 
BRANCH  77  78
ATOM     78  CE  LYS A   2     -13.460  24.703  -4.732  0.00  0.00    -0.086 C 
BRANCH  78  79
ATOM     79  NZ  LYS A   2     -13.852  25.889  -3.913  0.00  0.00    +0.380 N 
ATOM     80  HZ1 LYS A   2     -14.542  25.598  -3.191  0.00  0.00    -0.089 HD
ATOM     81  HZ2 LYS A   2     -13.008  26.283  -3.449  0.00  0.00    -0.089 HD
ATOM     82  HZ3 LYS A   2     -14.278  26.610  -4.530  0.00  0.00    -0.089 HD
ENDBRANCH  78  79
ENDBRANCH  77  78
ENDBRANCH  76  77
ENDBRANCH  75  76
ENDBRANCH  64  75
ENDBRANCH  60  64
ENDBRANCH  59  62
BRANCH  59  83
ATOM     83  CB  PHE A   3      -6.103  21.820  -8.762  0.00  0.00    +0.055 C 
BRANCH  83  84
ATOM     84  CG  PHE A   3      -6.590  20.579  -9.448  0.00  0.00    -0.020 A 
ATOM     85  CD2 PHE A   3      -6.045  19.347  -9.141  0.00  0.00    -0.004 A 
ATOM     86  CE2 PHE A   3      -6.479  18.201  -9.789  0.00  0.00    -0.000 A 
ATOM     87  CZ  PHE A   3      -7.481  18.282 -10.759  0.00  0.00    -0.000 A 
ATOM     88  CE1 PHE A   3      -8.021  19.506 -11.078  0.00  0.00    -0.000 A 
ATOM     89  CD1 PHE A   3      -7.573  20.648 -10.431  0.00  0.00    -0.004 A 
ENDBRANCH  83  84
ENDBRANCH  59  83
ENDBRANCH  55  59
ENDBRANCH  54  56
ENDBRANCH  50  54
ENDBRANCH  49  51
BRANCH  49  90
ATOM     90  CB  SER A   5      -1.716  25.437  -1.711  0.00  0.00    +0.166 C 
BRANCH  90  91
ATOM     91  OG  SER A   5      -1.035  25.102  -0.521  0.00  0.00    -0.380 OA
ATOM     92  H   SER A   5      -0.498  24.283  -0.669  0.00  0.00    +0.211 HD
ENDBRANCH  90  91
ENDBRANCH  49  90
ENDBRANCH   1  49
TORSDOF 36
REMARK  Name = ../refined-set-2016/2bys/2bys_pocket.pdb
REMARK  221 active torsions:
REMARK  status: ('A' for Active; 'I' for Inactive)
REMARK    1  A    between atoms: _1  and  _3
REMARK    2  A    between atoms: _3  and  _4
REMARK    3  A    between atoms: _3  and  _6
REMARK    4  A    between atoms: _6  and  _7
REMARK    5  A    between atoms: _10  and  _12
REMARK    6  A    between atoms: _12  and  _13
REMARK    7  A    between atoms: _12  and  _15
REMARK    8  A    between atoms: _15  and  _16
REMARK    9  A    between atoms: _19  and  _21
REMARK   10  A    between atoms: _21  and  _22
REMARK   11  A    between atoms: _21  and  _24
REMARK   12  A    between atoms: _24  and  _25
REMARK   13  A    between atoms: _28  and  _30
REMARK   14  A    between atoms: _30  and  _31
REMARK   15  A    between atoms: _34  and  _36
REMARK   16  A    between atoms: _36  and  _37
REMARK   17  A    between atoms: _36  and  _39
REMARK   18  A    between atoms: _39  and  _40
REMARK   19  A    between atoms: _45  and  _46
REMARK   20  A    between atoms: _48  and  _50
REMARK   21  A    between atoms: _50  and  _51
REMARK   22  A    between atoms: _50  and  _53
REMARK   23  A    between atoms: _53  and  _54
REMARK   24  A    between atoms: _56  and  _58
REMARK   25  A    between atoms: _58  and  _59
REMARK   26  A    between atoms: _58  and  _61
REMARK   27  A    between atoms: _61  and  _62
REMARK   28  A    between atoms: _64  and  _66
REMARK   29  A    between atoms: _66  and  _67
REMARK   30  A    between atoms: _66  and  _69
REMARK   31  A    between atoms: _72  and  _74
REMARK   32  A    between atoms: _74  and  _75
REMARK   33  A    between atoms: _74  and  _77
REMARK   34  A    between atoms: _77  and  _78
REMARK   35  A    between atoms: _78  and  _79
REMARK   36  A    between atoms: _79  and  _80
REMARK   37  A    between atoms: _80  and  _81
REMARK   38  A    between atoms: _85  and  _87
REMARK   39  A    between atoms: _87  and  _88
REMARK   40  A    between atoms: _87  and  _90
REMARK   41  A    between atoms: _90  and  _91
REMARK   42  A    between atoms: _97  and  _99
REMARK   43  A    between atoms: _99  and  _100
REMARK   44  A    between atoms: _102  and  _104
REMARK   45  A    between atoms: _104  and  _105
REMARK   46  A    between atoms: _104  and  _107
REMARK   47  A    between atoms: _107  and  _108
REMARK   48  A    between atoms: _110  and  _112
REMARK   49  A    between atoms: _112  and  _113
REMARK   50  A    between atoms: _112  and  _115
REMARK   51  A    between atoms: _115  and  _116
REMARK   52  A    between atoms: _126  and  _128
REMARK   53  A    between atoms: _128  and  _129
REMARK   54  A    between atoms: _128  and  _131
REMARK   55  A    between atoms: _134  and  _136
REMARK   56  A    between atoms: _136  and  _137
REMARK   57  A    between atoms: _136  and  _139
REMARK   58  A    between atoms: _139  and  _140
REMARK   59  A    between atoms: _145  and  _146
REMARK   60  A    between atoms: _148  and  _150
REMARK   61  A    between atoms: _150  and  _151
REMARK   62  A    between atoms: _150  and  _153
REMARK   63  A    between atoms: _153  and  _154
REMARK   64  A    between atoms: _156  and  _158
REMARK   65  A    between atoms: _158  and  _159
REMARK   66  A    between atoms: _158  and  _161
REMARK   67  A    between atoms: _161  and  _162
REMARK   68  A    between atoms: _162  and  _163
REMARK   69  A    between atoms: _166  and  _168
REMARK   70  A    between atoms: _168  and  _169
REMARK   71  A    between atoms: _168  and  _171
REMARK   72  A    between atoms: _171  and  _172
REMARK   73  A    between atoms: _175  and  _177
REMARK   74  A    between atoms: _177  and  _178
REMARK   75  A    between atoms: _177  and  _180
REMARK   76  A    between atoms: _180  and  _181
REMARK   77  A    between atoms: _181  and  _182
REMARK   78  A    between atoms: _187  and  _189
REMARK   79  A    between atoms: _189  and  _190
REMARK   80  A    between atoms: _189  and  _192
REMARK   81  A    between atoms: _192  and  _193
REMARK   82  A    between atoms: _193  and  _194
REMARK   83  A    between atoms: _199  and  _201
REMARK   84  A    between atoms: _201  and  _202
REMARK   85  A    between atoms: _201  and  _204
REMARK   86  A    between atoms: _204  and  _205
REMARK   87  A    between atoms: _210  and  _212
REMARK   88  A    between atoms: _212  and  _213
REMARK   89  A    between atoms: _212  and  _215
REMARK   90  A    between atoms: _215  and  _216
REMARK   91  A    between atoms: _221  and  _222
REMARK   92  A    between atoms: _224  and  _226
REMARK   93  A    between atoms: _226  and  _227
REMARK   94  A    between atoms: _226  and  _229
REMARK   95  A    between atoms: _229  and  _230
REMARK   96  A    between atoms: _232  and  _234
REMARK   97  A    between atoms: _241  and  _242
REMARK   98  A    between atoms: _247  and  _248
REMARK   99  A    between atoms: _253  and  _255
REMARK  100  A    between atoms: _255  and  _256
REMARK  101  A    between atoms: _255  and  _258
REMARK  102  A    between atoms: _258  and  _259
REMARK  103  A    between atoms: _259  and  _260
REMARK  104  A    between atoms: _264  and  _265
REMARK  105  A    between atoms: _270  and  _272
REMARK  106  A    between atoms: _272  and  _273
REMARK  107  A    between atoms: _272  and  _275
REMARK  108  A    between atoms: _275  and  _276
REMARK  109  A    between atoms: _281  and  _282
REMARK  110  A    between atoms: _284  and  _286
REMARK  111  A    between atoms: _286  and  _287
REMARK  112  A    between atoms: _286  and  _289
REMARK  113  A    between atoms: _289  and  _290
REMARK  114  A    between atoms: _293  and  _295
REMARK  115  A    between atoms: _295  and  _296
REMARK  116  A    between atoms: _295  and  _298
REMARK  117  A    between atoms: _298  and  _299
REMARK  118  A    between atoms: _302  and  _304
REMARK  119  A    between atoms: _304  and  _305
REMARK  120  A    between atoms: _304  and  _307
REMARK  121  A    between atoms: _310  and  _312
REMARK  122  A    between atoms: _312  and  _313
REMARK  123  A    between atoms: _312  and  _315
REMARK  124  A    between atoms: _315  and  _316
REMARK  125  A    between atoms: _321  and  _323
REMARK  126  A    between atoms: _323  and  _324
REMARK  127  A    between atoms: _323  and  _326
REMARK  128  A    between atoms: _326  and  _327
REMARK  129  A    between atoms: _330  and  _332
REMARK  130  A    between atoms: _332  and  _333
REMARK  131  A    between atoms: _332  and  _335
REMARK  132  A    between atoms: _335  and  _336
REMARK  133  A    between atoms: _336  and  _337
REMARK  134  A    between atoms: _342  and  _344
REMARK  135  A    between atoms: _344  and  _345
REMARK  136  A    between atoms: _344  and  _347
REMARK  137  A    between atoms: _347  and  _348
REMARK  138  A    between atoms: _353  and  _354
REMARK  139  A    between atoms: _356  and  _358
REMARK  140  A    between atoms: _358  and  _359
REMARK  141  A    between atoms: _358  and  _361
REMARK  142  A    between atoms: _361  and  _362
REMARK  143  A    between atoms: _362  and  _363
REMARK  144  A    between atoms: _366  and  _368
REMARK  145  A    between atoms: _368  and  _369
REMARK  146  A    between atoms: _368  and  _371
REMARK  147  A    between atoms: _371  and  _372
REMARK  148  A    between atoms: _372  and  _373
REMARK  149  A    between atoms: _378  and  _380
REMARK  150  A    between atoms: _380  and  _381
REMARK  151  A    between atoms: _380  and  _383
REMARK  152  A    between atoms: _383  and  _384
REMARK  153  A    between atoms: _384  and  _385
REMARK  154  A    between atoms: _390  and  _392
REMARK  155  A    between atoms: _392  and  _393
REMARK  156  A    between atoms: _392  and  _395
REMARK  157  A    between atoms: _395  and  _396
REMARK  158  A    between atoms: _396  and  _397
REMARK  159  A    between atoms: _397  and  _398
REMARK  160  A    between atoms: _407  and  _409
REMARK  161  A    between atoms: _409  and  _410
REMARK  162  A    between atoms: _409  and  _412
REMARK  163  A    between atoms: _412  and  _413
REMARK  164  A    between atoms: _416  and  _418
REMARK  165  A    between atoms: _418  and  _419
REMARK  166  A    between atoms: _418  and  _421
REMARK  167  A    between atoms: _421  and  _422
REMARK  168  A    between atoms: _428  and  _430
REMARK  169  A    between atoms: _430  and  _431
REMARK  170  A    between atoms: _430  and  _433
REMARK  171  A    between atoms: _433  and  _434
REMARK  172  A    between atoms: _434  and  _435
REMARK  173  A    between atoms: _435  and  _436
REMARK  174  A    between atoms: _445  and  _447
REMARK  175  A    between atoms: _447  and  _448
REMARK  176  A    between atoms: _447  and  _450
REMARK  177  A    between atoms: _450  and  _451
REMARK  178  A    between atoms: _454  and  _456
REMARK  179  A    between atoms: _456  and  _457
REMARK  180  A    between atoms: _456  and  _459
REMARK  181  A    between atoms: _459  and  _460
REMARK  182  A    between atoms: _463  and  _464
REMARK  183  A    between atoms: _469  and  _471
REMARK  184  A    between atoms: _471  and  _472
REMARK  185  A    between atoms: _471  and  _474
REMARK  186  A    between atoms: _474  and  _475
REMARK  187  A    between atoms: _478  and  _480
REMARK  188  A    between atoms: _480  and  _481
REMARK  189  A    between atoms: _484  and  _486
REMARK  190  A    between atoms: _486  and  _487
REMARK  191  A    between atoms: _486  and  _489
REMARK  192  A    between atoms: _492  and  _494
REMARK  193  A    between atoms: _494  and  _495
REMARK  194  A    between atoms: _494  and  _497
REMARK  195  A    between atoms: _500  and  _502
REMARK  196  A    between atoms: _502  and  _503
REMARK  197  A    between atoms: _502  and  _505
REMARK  198  A    between atoms: _505  and  _506
REMARK  199  A    between atoms: _509  and  _511
REMARK  200  A    between atoms: _511  and  _512
REMARK  201  A    between atoms: _511  and  _514
REMARK  202  A    between atoms: _517  and  _519
REMARK  203  A    between atoms: _519  and  _520
REMARK  204  A    between atoms: _519  and  _522
REMARK  205  A    between atoms: _522  and  _523
REMARK  206  A    between atoms: _523  and  _524
REMARK  207  A    between atoms: _526  and  _528
REMARK  208  A    between atoms: _528  and  _529
REMARK  209  A    between atoms: _528  and  _531
REMARK  210  A    between atoms: _531  and  _532
REMARK  211  A    between atoms: _538  and  _540
REMARK  212  A    between atoms: _540  and  _541
REMARK  213  A    between atoms: _540  and  _543
REMARK  214  A    between atoms: _543  and  _544
REMARK  215  A    between atoms: _548  and  _549
REMARK  216  A    between atoms: _554  and  _556
REMARK  217  A    between atoms: _556  and  _557
REMARK  218  A    between atoms: _560  and  _562
REMARK  219  A    between atoms: _562  and  _563
REMARK  220  A    between atoms: _562  and  _565
REMARK  221  A    between atoms: _565  and  _566
REMARK                            x       y       z     vdW  Elec       q    Type
REMARK                         _______ _______ _______ _____ _____    ______ ____
ROOT
ATOM      1  CA  GLU A   1       1.917  32.140   0.703  0.00  0.00    +0.134 C 
ENDROOT
BRANCH   1   2
ATOM      2  N   GLU A   1       0.738  33.002   0.714  0.00  0.00    -0.239 NA
ATOM      3  H   GLU A   1      -0.204  32.568   0.638  0.00  0.00    +0.142 HD
ENDBRANCH   1   2
BRANCH   1   4
ATOM      4  C   GLU A   1       2.123  31.523  -0.673  0.00  0.00    +0.224 C 
ATOM      5  O   GLU A   1       3.224  31.571  -1.219  0.00  0.00    -0.287 OA
ENDBRANCH   1   4
BRANCH   1   6
ATOM      6  CB  GLU A   1       1.788  31.028   1.749  0.00  0.00    +0.037 C 
BRANCH   6   7
ATOM      7  CG  GLU A   1       1.940  31.476   3.203  0.00  0.00    +0.116 C 
BRANCH   7   8
ATOM      8  CD  GLU A   1       0.617  31.801   3.887  0.00  0.00    +0.365 C 
ATOM      9  OE2 GLU A   1       0.562  32.842   4.574  0.00  0.00    -0.246 OA
ATOM     10  OE1 GLU A   1      -0.355  31.023   3.763  0.00  0.00    -0.246 OA
ENDBRANCH   7   8
ENDBRANCH   6   7
ENDBRANCH   1   6
TORSDOF 5
REMARK  Name = ../refined-set-2016/2bys/2bys_pocket.pdb
REMARK  221 active torsions:
REMARK  status: ('A' for Active; 'I' for Inactive)
REMARK    1  A    between atoms: _1  and  _3
REMARK    2  A    between atoms: _3  and  _4
REMARK    3  A    between atoms: _3  and  _6
REMARK    4  A    between atoms: _6  and  _7
REMARK    5  A    between atoms: _10  and  _12
REMARK    6  A    between atoms: _12  and  _13
REMARK    7  A    between atoms: _12  and  _15
REMARK    8  A    between atoms: _15  and  _16
REMARK    9  A    between atoms: _19  and  _21
REMARK   10  A    between atoms: _21  and  _22
REMARK   11  A    between atoms: _21  and  _24
REMARK   12  A    between atoms: _24  and  _25
REMARK   13  A    between atoms: _28  and  _30
REMARK   14  A    between atoms: _30  and  _31
REMARK   15  A    between atoms: _34  and  _36
REMARK   16  A    between atoms: _36  and  _37
REMARK   17  A    between atoms: _36  and  _39
REMARK   18  A    between atoms: _39  and  _40
REMARK   19  A    between atoms: _45  and  _46
REMARK   20  A    between atoms: _48  and  _50
REMARK   21  A    between atoms: _50  and  _51
REMARK   22  A    between atoms: _50  and  _53
REMARK   23  A    between atoms: _53  and  _54
REMARK   24  A    between atoms: _56  and  _58
REMARK   25  A    between atoms: _58  and  _59
REMARK   26  A    between atoms: _58  and  _61
REMARK   27  A    between atoms: _61  and  _62
REMARK   28  A    between atoms: _64  and  _66
REMARK   29  A    between atoms: _66  and  _67
REMARK   30  A    between atoms: _66  and  _69
REMARK   31  A    between atoms: _72  and  _74
REMARK   32  A    between atoms: _74  and  _75
REMARK   33  A    between atoms: _74  and  _77
REMARK   34  A    between atoms: _77  and  _78
REMARK   35  A    between atoms: _78  and  _79
REMARK   36  A    between atoms: _79  and  _80
REMARK   37  A    between atoms: _80  and  _81
REMARK   38  A    between atoms: _85  and  _87
REMARK   39  A    between atoms: _87  and  _88
REMARK   40  A    between atoms: _87  and  _90
REMARK   41  A    between atoms: _90  and  _91
REMARK   42  A    between atoms: _97  and  _99
REMARK   43  A    between atoms: _99  and  _100
REMARK   44  A    between atoms: _102  and  _104
REMARK   45  A    between atoms: _104  and  _105
REMARK   46  A    between atoms: _104  and  _107
REMARK   47  A    between atoms: _107  and  _108
REMARK   48  A    between atoms: _110  and  _112
REMARK   49  A    between atoms: _112  and  _113
REMARK   50  A    between atoms: _112  and  _115
REMARK   51  A    between atoms: _115  and  _116
REMARK   52  A    between atoms: _126  and  _128
REMARK   53  A    between atoms: _128  and  _129
REMARK   54  A    between atoms: _128  and  _131
REMARK   55  A    between atoms: _134  and  _136
REMARK   56  A    between atoms: _136  and  _137
REMARK   57  A    between atoms: _136  and  _139
REMARK   58  A    between atoms: _139  and  _140
REMARK   59  A    between atoms: _145  and  _146
REMARK   60  A    between atoms: _148  and  _150
REMARK   61  A    between atoms: _150  and  _151
REMARK   62  A    between atoms: _150  and  _153
REMARK   63  A    between atoms: _153  and  _154
REMARK   64  A    between atoms: _156  and  _158
REMARK   65  A    between atoms: _158  and  _159
REMARK   66  A    between atoms: _158  and  _161
REMARK   67  A    between atoms: _161  and  _162
REMARK   68  A    between atoms: _162  and  _163
REMARK   69  A    between atoms: _166  and  _168
REMARK   70  A    between atoms: _168  and  _169
REMARK   71  A    between atoms: _168  and  _171
REMARK   72  A    between atoms: _171  and  _172
REMARK   73  A    between atoms: _175  and  _177
REMARK   74  A    between atoms: _177  and  _178
REMARK   75  A    between atoms: _177  and  _180
REMARK   76  A    between atoms: _180  and  _181
REMARK   77  A    between atoms: _181  and  _182
REMARK   78  A    between atoms: _187  and  _189
REMARK   79  A    between atoms: _189  and  _190
REMARK   80  A    between atoms: _189  and  _192
REMARK   81  A    between atoms: _192  and  _193
REMARK   82  A    between atoms: _193  and  _194
REMARK   83  A    between atoms: _199  and  _201
REMARK   84  A    between atoms: _201  and  _202
REMARK   85  A    between atoms: _201  and  _204
REMARK   86  A    between atoms: _204  and  _205
REMARK   87  A    between atoms: _210  and  _212
REMARK   88  A    between atoms: _212  and  _213
REMARK   89  A    between atoms: _212  and  _215
REMARK   90  A    between atoms: _215  and  _216
REMARK   91  A    between atoms: _221  and  _222
REMARK   92  A    between atoms: _224  and  _226
REMARK   93  A    between atoms: _226  and  _227
REMARK   94  A    between atoms: _226  and  _229
REMARK   95  A    between atoms: _229  and  _230
REMARK   96  A    between atoms: _232  and  _234
REMARK   97  A    between atoms: _241  and  _242
REMARK   98  A    between atoms: _247  and  _248
REMARK   99  A    between atoms: _253  and  _255
REMARK  100  A    between atoms: _255  and  _256
REMARK  101  A    between atoms: _255  and  _258
REMARK  102  A    between atoms: _258  and  _259
REMARK  103  A    between atoms: _259  and  _260
REMARK  104  A    between atoms: _264  and  _265
REMARK  105  A    between atoms: _270  and  _272
REMARK  106  A    between atoms: _272  and  _273
REMARK  107  A    between atoms: _272  and  _275
REMARK  108  A    between atoms: _275  and  _276
REMARK  109  A    between atoms: _281  and  _282
REMARK  110  A    between atoms: _284  and  _286
REMARK  111  A    between atoms: _286  and  _287
REMARK  112  A    between atoms: _286  and  _289
REMARK  113  A    between atoms: _289  and  _290
REMARK  114  A    between atoms: _293  and  _295
REMARK  115  A    between atoms: _295  and  _296
REMARK  116  A    between atoms: _295  and  _298
REMARK  117  A    between atoms: _298  and  _299
REMARK  118  A    between atoms: _302  and  _304
REMARK  119  A    between atoms: _304  and  _305
REMARK  120  A    between atoms: _304  and  _307
REMARK  121  A    between atoms: _310  and  _312
REMARK  122  A    between atoms: _312  and  _313
REMARK  123  A    between atoms: _312  and  _315
REMARK  124  A    between atoms: _315  and  _316
REMARK  125  A    between atoms: _321  and  _323
REMARK  126  A    between atoms: _323  and  _324
REMARK  127  A    between atoms: _323  and  _326
REMARK  128  A    between atoms: _326  and  _327
REMARK  129  A    between atoms: _330  and  _332
REMARK  130  A    between atoms: _332  and  _333
REMARK  131  A    between atoms: _332  and  _335
REMARK  132  A    between atoms: _335  and  _336
REMARK  133  A    between atoms: _336  and  _337
REMARK  134  A    between atoms: _342  and  _344
REMARK  135  A    between atoms: _344  and  _345
REMARK  136  A    between atoms: _344  and  _347
REMARK  137  A    between atoms: _347  and  _348
REMARK  138  A    between atoms: _353  and  _354
REMARK  139  A    between atoms: _356  and  _358
REMARK  140  A    between atoms: _358  and  _359
REMARK  141  A    between atoms: _358  and  _361
REMARK  142  A    between atoms: _361  and  _362
REMARK  143  A    between atoms: _362  and  _363
REMARK  144  A    between atoms: _366  and  _368
REMARK  145  A    between atoms: _368  and  _369
REMARK  146  A    between atoms: _368  and  _371
REMARK  147  A    between atoms: _371  and  _372
REMARK  148  A    between atoms: _372  and  _373
REMARK  149  A    between atoms: _378  and  _380
REMARK  150  A    between atoms: _380  and  _381
REMARK  151  A    between atoms: _380  and  _383
REMARK  152  A    between atoms: _383  and  _384
REMARK  153  A    between atoms: _384  and  _385
REMARK  154  A    between atoms: _390  and  _392
REMARK  155  A    between atoms: _392  and  _393
REMARK  156  A    between atoms: _392  and  _395
REMARK  157  A    between atoms: _395  and  _396
REMARK  158  A    between atoms: _396  and  _397
REMARK  159  A    between atoms: _397  and  _398
REMARK  160  A    between atoms: _407  and  _409
REMARK  161  A    between atoms: _409  and  _410
REMARK  162  A    between atoms: _409  and  _412
REMARK  163  A    between atoms: _412  and  _413
REMARK  164  A    between atoms: _416  and  _418
REMARK  165  A    between atoms: _418  and  _419
REMARK  166  A    between atoms: _418  and  _421
REMARK  167  A    between atoms: _421  and  _422
REMARK  168  A    between atoms: _428  and  _430
REMARK  169  A    between atoms: _430  and  _431
REMARK  170  A    between atoms: _430  and  _433
REMARK  171  A    between atoms: _433  and  _434
REMARK  172  A    between atoms: _434  and  _435
REMARK  173  A    between atoms: _435  and  _436
REMARK  174  A    between atoms: _445  and  _447
REMARK  175  A    between atoms: _447  and  _448
REMARK  176  A    between atoms: _447  and  _450
REMARK  177  A    between atoms: _450  and  _451
REMARK  178  A    between atoms: _454  and  _456
REMARK  179  A    between atoms: _456  and  _457
REMARK  180  A    between atoms: _456  and  _459
REMARK  181  A    between atoms: _459  and  _460
REMARK  182  A    between atoms: _463  and  _464
REMARK  183  A    between atoms: _469  and  _471
REMARK  184  A    between atoms: _471  and  _472
REMARK  185  A    between atoms: _471  and  _474
REMARK  186  A    between atoms: _474  and  _475
REMARK  187  A    between atoms: _478  and  _480
REMARK  188  A    between atoms: _480  and  _481
REMARK  189  A    between atoms: _484  and  _486
REMARK  190  A    between atoms: _486  and  _487
REMARK  191  A    between atoms: _486  and  _489
REMARK  192  A    between atoms: _492  and  _494
REMARK  193  A    between atoms: _494  and  _495
REMARK  194  A    between atoms: _494  and  _497
REMARK  195  A    between atoms: _500  and  _502
REMARK  196  A    between atoms: _502  and  _503
REMARK  197  A    between atoms: _502  and  _505
REMARK  198  A    between atoms: _505  and  _506
REMARK  199  A    between atoms: _509  and  _511
REMARK  200  A    between atoms: _511  and  _512
REMARK  201  A    between atoms: _511  and  _514
REMARK  202  A    between atoms: _517  and  _519
REMARK  203  A    between atoms: _519  and  _520
REMARK  204  A    between atoms: _519  and  _522
REMARK  205  A    between atoms: _522  and  _523
REMARK  206  A    between atoms: _523  and  _524
REMARK  207  A    between atoms: _526  and  _528
REMARK  208  A    between atoms: _528  and  _529
REMARK  209  A    between atoms: _528  and  _531
REMARK  210  A    between atoms: _531  and  _532
REMARK  211  A    between atoms: _538  and  _540
REMARK  212  A    between atoms: _540  and  _541
REMARK  213  A    between atoms: _540  and  _543
REMARK  214  A    between atoms: _543  and  _544
REMARK  215  A    between atoms: _548  and  _549
REMARK  216  A    between atoms: _554  and  _556
REMARK  217  A    between atoms: _556  and  _557
REMARK  218  A    between atoms: _560  and  _562
REMARK  219  A    between atoms: _562  and  _563
REMARK  220  A    between atoms: _562  and  _565
REMARK  221  A    between atoms: _565  and  _566
REMARK                            x       y       z     vdW  Elec       q    Type
REMARK                         _______ _______ _______ _____ _____    ______ ____
ROOT
ATOM      1  CA  LEU A   1      -1.437  30.199  -8.711  0.00  0.00    +0.133 C 
ENDROOT
BRANCH   1   2
ATOM      2  N   LEU A   1      -1.403  31.055  -7.535  0.00  0.00    -0.239 NA
ATOM      3  H   LEU A   1      -2.240  31.630  -7.310  0.00  0.00    +0.142 HD
ENDBRANCH   1   2
BRANCH   1   4
ATOM      4  C   LEU A   1      -1.634  31.054  -9.949  0.00  0.00    +0.224 C 
ATOM      5  O   LEU A   1      -2.280  32.093  -9.890  0.00  0.00    -0.287 OA
ENDBRANCH   1   4
BRANCH   1   6
ATOM      6  CB  LEU A   1      -2.604  29.205  -8.628  0.00  0.00    +0.025 C 
BRANCH   6   7
ATOM      7  CG  LEU A   1      -2.634  28.214  -7.462  0.00  0.00    +0.002 C 
ATOM      8  CD2 LEU A   1      -1.378  27.354  -7.441  0.00  0.00    +0.000 C 
ATOM      9  CD1 LEU A   1      -3.878  27.349  -7.557  0.00  0.00    +0.000 C 
ENDBRANCH   6   7
ENDBRANCH   1   6
TORSDOF 4
REMARK  Name = ../refined-set-2016/2bys/2bys_pocket.pdb
REMARK  221 active torsions:
REMARK  status: ('A' for Active; 'I' for Inactive)
REMARK    1  A    between atoms: _1  and  _3
REMARK    2  A    between atoms: _3  and  _4
REMARK    3  A    between atoms: _3  and  _6
REMARK    4  A    between atoms: _6  and  _7
REMARK    5  A    between atoms: _10  and  _12
REMARK    6  A    between atoms: _12  and  _13
REMARK    7  A    between atoms: _12  and  _15
REMARK    8  A    between atoms: _15  and  _16
REMARK    9  A    between atoms: _19  and  _21
REMARK   10  A    between atoms: _21  and  _22
REMARK   11  A    between atoms: _21  and  _24
REMARK   12  A    between atoms: _24  and  _25
REMARK   13  A    between atoms: _28  and  _30
REMARK   14  A    between atoms: _30  and  _31
REMARK   15  A    between atoms: _34  and  _36
REMARK   16  A    between atoms: _36  and  _37
REMARK   17  A    between atoms: _36  and  _39
REMARK   18  A    between atoms: _39  and  _40
REMARK   19  A    between atoms: _45  and  _46
REMARK   20  A    between atoms: _48  and  _50
REMARK   21  A    between atoms: _50  and  _51
REMARK   22  A    between atoms: _50  and  _53
REMARK   23  A    between atoms: _53  and  _54
REMARK   24  A    between atoms: _56  and  _58
REMARK   25  A    between atoms: _58  and  _59
REMARK   26  A    between atoms: _58  and  _61
REMARK   27  A    between atoms: _61  and  _62
REMARK   28  A    between atoms: _64  and  _66
REMARK   29  A    between atoms: _66  and  _67
REMARK   30  A    between atoms: _66  and  _69
REMARK   31  A    between atoms: _72  and  _74
REMARK   32  A    between atoms: _74  and  _75
REMARK   33  A    between atoms: _74  and  _77
REMARK   34  A    between atoms: _77  and  _78
REMARK   35  A    between atoms: _78  and  _79
REMARK   36  A    between atoms: _79  and  _80
REMARK   37  A    between atoms: _80  and  _81
REMARK   38  A    between atoms: _85  and  _87
REMARK   39  A    between atoms: _87  and  _88
REMARK   40  A    between atoms: _87  and  _90
REMARK   41  A    between atoms: _90  and  _91
REMARK   42  A    between atoms: _97  and  _99
REMARK   43  A    between atoms: _99  and  _100
REMARK   44  A    between atoms: _102  and  _104
REMARK   45  A    between atoms: _104  and  _105
REMARK   46  A    between atoms: _104  and  _107
REMARK   47  A    between atoms: _107  and  _108
REMARK   48  A    between atoms: _110  and  _112
REMARK   49  A    between atoms: _112  and  _113
REMARK   50  A    between atoms: _112  and  _115
REMARK   51  A    between atoms: _115  and  _116
REMARK   52  A    between atoms: _126  and  _128
REMARK   53  A    between atoms: _128  and  _129
REMARK   54  A    between atoms: _128  and  _131
REMARK   55  A    between atoms: _134  and  _136
REMARK   56  A    between atoms: _136  and  _137
REMARK   57  A    between atoms: _136  and  _139
REMARK   58  A    between atoms: _139  and  _140
REMARK   59  A    between atoms: _145  and  _146
REMARK   60  A    between atoms: _148  and  _150
REMARK   61  A    between atoms: _150  and  _151
REMARK   62  A    between atoms: _150  and  _153
REMARK   63  A    between atoms: _153  and  _154
REMARK   64  A    between atoms: _156  and  _158
REMARK   65  A    between atoms: _158  and  _159
REMARK   66  A    between atoms: _158  and  _161
REMARK   67  A    between atoms: _161  and  _162
REMARK   68  A    between atoms: _162  and  _163
REMARK   69  A    between atoms: _166  and  _168
REMARK   70  A    between atoms: _168  and  _169
REMARK   71  A    between atoms: _168  and  _171
REMARK   72  A    between atoms: _171  and  _172
REMARK   73  A    between atoms: _175  and  _177
REMARK   74  A    between atoms: _177  and  _178
REMARK   75  A    between atoms: _177  and  _180
REMARK   76  A    between atoms: _180  and  _181
REMARK   77  A    between atoms: _181  and  _182
REMARK   78  A    between atoms: _187  and  _189
REMARK   79  A    between atoms: _189  and  _190
REMARK   80  A    between atoms: _189  and  _192
REMARK   81  A    between atoms: _192  and  _193
REMARK   82  A    between atoms: _193  and  _194
REMARK   83  A    between atoms: _199  and  _201
REMARK   84  A    between atoms: _201  and  _202
REMARK   85  A    between atoms: _201  and  _204
REMARK   86  A    between atoms: _204  and  _205
REMARK   87  A    between atoms: _210  and  _212
REMARK   88  A    between atoms: _212  and  _213
REMARK   89  A    between atoms: _212  and  _215
REMARK   90  A    between atoms: _215  and  _216
REMARK   91  A    between atoms: _221  and  _222
REMARK   92  A    between atoms: _224  and  _226
REMARK   93  A    between atoms: _226  and  _227
REMARK   94  A    between atoms: _226  and  _229
REMARK   95  A    between atoms: _229  and  _230
REMARK   96  A    between atoms: _232  and  _234
REMARK   97  A    between atoms: _241  and  _242
REMARK   98  A    between atoms: _247  and  _248
REMARK   99  A    between atoms: _253  and  _255
REMARK  100  A    between atoms: _255  and  _256
REMARK  101  A    between atoms: _255  and  _258
REMARK  102  A    between atoms: _258  and  _259
REMARK  103  A    between atoms: _259  and  _260
REMARK  104  A    between atoms: _264  and  _265
REMARK  105  A    between atoms: _270  and  _272
REMARK  106  A    between atoms: _272  and  _273
REMARK  107  A    between atoms: _272  and  _275
REMARK  108  A    between atoms: _275  and  _276
REMARK  109  A    between atoms: _281  and  _282
REMARK  110  A    between atoms: _284  and  _286
REMARK  111  A    between atoms: _286  and  _287
REMARK  112  A    between atoms: _286  and  _289
REMARK  113  A    between atoms: _289  and  _290
REMARK  114  A    between atoms: _293  and  _295
REMARK  115  A    between atoms: _295  and  _296
REMARK  116  A    between atoms: _295  and  _298
REMARK  117  A    between atoms: _298  and  _299
REMARK  118  A    between atoms: _302  and  _304
REMARK  119  A    between atoms: _304  and  _305
REMARK  120  A    between atoms: _304  and  _307
REMARK  121  A    between atoms: _310  and  _312
REMARK  122  A    between atoms: _312  and  _313
REMARK  123  A    between atoms: _312  and  _315
REMARK  124  A    between atoms: _315  and  _316
REMARK  125  A    between atoms: _321  and  _323
REMARK  126  A    between atoms: _323  and  _324
REMARK  127  A    between atoms: _323  and  _326
REMARK  128  A    between atoms: _326  and  _327
REMARK  129  A    between atoms: _330  and  _332
REMARK  130  A    between atoms: _332  and  _333
REMARK  131  A    between atoms: _332  and  _335
REMARK  132  A    between atoms: _335  and  _336
REMARK  133  A    between atoms: _336  and  _337
REMARK  134  A    between atoms: _342  and  _344
REMARK  135  A    between atoms: _344  and  _345
REMARK  136  A    between atoms: _344  and  _347
REMARK  137  A    between atoms: _347  and  _348
REMARK  138  A    between atoms: _353  and  _354
REMARK  139  A    between atoms: _356  and  _358
REMARK  140  A    between atoms: _358  and  _359
REMARK  141  A    between atoms: _358  and  _361
REMARK  142  A    between atoms: _361  and  _362
REMARK  143  A    between atoms: _362  and  _363
REMARK  144  A    between atoms: _366  and  _368
REMARK  145  A    between atoms: _368  and  _369
REMARK  146  A    between atoms: _368  and  _371
REMARK  147  A    between atoms: _371  and  _372
REMARK  148  A    between atoms: _372  and  _373
REMARK  149  A    between atoms: _378  and  _380
REMARK  150  A    between atoms: _380  and  _381
REMARK  151  A    between atoms: _380  and  _383
REMARK  152  A    between atoms: _383  and  _384
REMARK  153  A    between atoms: _384  and  _385
REMARK  154  A    between atoms: _390  and  _392
REMARK  155  A    between atoms: _392  and  _393
REMARK  156  A    between atoms: _392  and  _395
REMARK  157  A    between atoms: _395  and  _396
REMARK  158  A    between atoms: _396  and  _397
REMARK  159  A    between atoms: _397  and  _398
REMARK  160  A    between atoms: _407  and  _409
REMARK  161  A    between atoms: _409  and  _410
REMARK  162  A    between atoms: _409  and  _412
REMARK  163  A    between atoms: _412  and  _413
REMARK  164  A    between atoms: _416  and  _418
REMARK  165  A    between atoms: _418  and  _419
REMARK  166  A    between atoms: _418  and  _421
REMARK  167  A    between atoms: _421  and  _422
REMARK  168  A    between atoms: _428  and  _430
REMARK  169  A    between atoms: _430  and  _431
REMARK  170  A    between atoms: _430  and  _433
REMARK  171  A    between atoms: _433  and  _434
REMARK  172  A    between atoms: _434  and  _435
REMARK  173  A    between atoms: _435  and  _436
REMARK  174  A    between atoms: _445  and  _447
REMARK  175  A    between atoms: _447  and  _448
REMARK  176  A    between atoms: _447  and  _450
REMARK  177  A    between atoms: _450  and  _451
REMARK  178  A    between atoms: _454  and  _456
REMARK  179  A    between atoms: _456  and  _457
REMARK  180  A    between atoms: _456  and  _459
REMARK  181  A    between atoms: _459  and  _460
REMARK  182  A    between atoms: _463  and  _464
REMARK  183  A    between atoms: _469  and  _471
REMARK  184  A    between atoms: _471  and  _472
REMARK  185  A    between atoms: _471  and  _474
REMARK  186  A    between atoms: _474  and  _475
REMARK  187  A    between atoms: _478  and  _480
REMARK  188  A    between atoms: _480  and  _481
REMARK  189  A    between atoms: _484  and  _486
REMARK  190  A    between atoms: _486  and  _487
REMARK  191  A    between atoms: _486  and  _489
REMARK  192  A    between atoms: _492  and  _494
REMARK  193  A    between atoms: _494  and  _495
REMARK  194  A    between atoms: _494  and  _497
REMARK  195  A    between atoms: _500  and  _502
REMARK  196  A    between atoms: _502  and  _503
REMARK  197  A    between atoms: _502  and  _505
REMARK  198  A    between atoms: _505  and  _506
REMARK  199  A    between atoms: _509  and  _511
REMARK  200  A    between atoms: _511  and  _512
REMARK  201  A    between atoms: _511  and  _514
REMARK  202  A    between atoms: _517  and  _519
REMARK  203  A    between atoms: _519  and  _520
REMARK  204  A    between atoms: _519  and  _522
REMARK  205  A    between atoms: _522  and  _523
REMARK  206  A    between atoms: _523  and  _524
REMARK  207  A    between atoms: _526  and  _528
REMARK  208  A    between atoms: _528  and  _529
REMARK  209  A    between atoms: _528  and  _531
REMARK  210  A    between atoms: _531  and  _532
REMARK  211  A    between atoms: _538  and  _540
REMARK  212  A    between atoms: _540  and  _541
REMARK  213  A    between atoms: _540  and  _543
REMARK  214  A    between atoms: _543  and  _544
REMARK  215  A    between atoms: _548  and  _549
REMARK  216  A    between atoms: _554  and  _556
REMARK  217  A    between atoms: _556  and  _557
REMARK  218  A    between atoms: _560  and  _562
REMARK  219  A    between atoms: _562  and  _563
REMARK  220  A    between atoms: _562  and  _565
REMARK  221  A    between atoms: _565  and  _566
REMARK                            x       y       z     vdW  Elec       q    Type
REMARK                         _______ _______ _______ _____ _____    ______ ____
ROOT
ATOM      1  CB  GLN A   1     -11.520  30.540  -8.662  0.00  0.00    +0.035 C 
ENDROOT
BRANCH   1   2
ATOM      2  CA  GLN A   1     -10.341  31.503  -8.808  0.00  0.00    +0.134 C 
BRANCH   2   3
ATOM      3  N   GLN A   1      -9.309  30.930  -9.675  0.00  0.00    -0.239 NA
ATOM      4  H   GLN A   1      -8.712  30.166  -9.298  0.00  0.00    +0.142 HD
ENDBRANCH   2   3
BRANCH   2   5
ATOM      5  C   GLN A   1      -9.799  31.815  -7.412  0.00  0.00    +0.224 C 
ATOM      6  O   GLN A   1      -8.768  31.285  -6.996  0.00  0.00    -0.287 OA
ENDBRANCH   2   5
ENDBRANCH   1   2
BRANCH   1   7
ATOM      7  CG  GLN A   1     -12.114  30.045  -9.968  0.00  0.00    +0.087 C 
BRANCH   7   8
ATOM      8  CD  GLN A   1     -13.278  29.089  -9.757  0.00  0.00    +0.219 C 
ATOM      9  NE2 GLN A   1     -13.070  28.061  -8.932  0.00  0.00    -0.329 N 
ATOM     10 HE21 GLN A   1     -12.145  27.943  -8.471  0.00  0.00    +0.145 HD
ATOM     11 HE22 GLN A   1     -13.833  27.378  -8.750  0.00  0.00    +0.145 HD
ATOM     12  OE1 GLN A   1     -14.353  29.274 -10.327  0.00  0.00    -0.275 OA
ENDBRANCH   7   8
ENDBRANCH   1   7
TORSDOF 5
REMARK  Name = ../refined-set-2016/2bys/2bys_pocket.pdb
REMARK  221 active torsions:
REMARK  status: ('A' for Active; 'I' for Inactive)
REMARK    1  A    between atoms: _1  and  _3
REMARK    2  A    between atoms: _3  and  _4
REMARK    3  A    between atoms: _3  and  _6
REMARK    4  A    between atoms: _6  and  _7
REMARK    5  A    between atoms: _10  and  _12
REMARK    6  A    between atoms: _12  and  _13
REMARK    7  A    between atoms: _12  and  _15
REMARK    8  A    between atoms: _15  and  _16
REMARK    9  A    between atoms: _19  and  _21
REMARK   10  A    between atoms: _21  and  _22
REMARK   11  A    between atoms: _21  and  _24
REMARK   12  A    between atoms: _24  and  _25
REMARK   13  A    between atoms: _28  and  _30
REMARK   14  A    between atoms: _30  and  _31
REMARK   15  A    between atoms: _34  and  _36
REMARK   16  A    between atoms: _36  and  _37
REMARK   17  A    between atoms: _36  and  _39
REMARK   18  A    between atoms: _39  and  _40
REMARK   19  A    between atoms: _45  and  _46
REMARK   20  A    between atoms: _48  and  _50
REMARK   21  A    between atoms: _50  and  _51
REMARK   22  A    between atoms: _50  and  _53
REMARK   23  A    between atoms: _53  and  _54
REMARK   24  A    between atoms: _56  and  _58
REMARK   25  A    between atoms: _58  and  _59
REMARK   26  A    between atoms: _58  and  _61
REMARK   27  A    between atoms: _61  and  _62
REMARK   28  A    between atoms: _64  and  _66
REMARK   29  A    between atoms: _66  and  _67
REMARK   30  A    between atoms: _66  and  _69
REMARK   31  A    between atoms: _72  and  _74
REMARK   32  A    between atoms: _74  and  _75
REMARK   33  A    between atoms: _74  and  _77
REMARK   34  A    between atoms: _77  and  _78
REMARK   35  A    between atoms: _78  and  _79
REMARK   36  A    between atoms: _79  and  _80
REMARK   37  A    between atoms: _80  and  _81
REMARK   38  A    between atoms: _85  and  _87
REMARK   39  A    between atoms: _87  and  _88
REMARK   40  A    between atoms: _87  and  _90
REMARK   41  A    between atoms: _90  and  _91
REMARK   42  A    between atoms: _97  and  _99
REMARK   43  A    between atoms: _99  and  _100
REMARK   44  A    between atoms: _102  and  _104
REMARK   45  A    between atoms: _104  and  _105
REMARK   46  A    between atoms: _104  and  _107
REMARK   47  A    between atoms: _107  and  _108
REMARK   48  A    between atoms: _110  and  _112
REMARK   49  A    between atoms: _112  and  _113
REMARK   50  A    between atoms: _112  and  _115
REMARK   51  A    between atoms: _115  and  _116
REMARK   52  A    between atoms: _126  and  _128
REMARK   53  A    between atoms: _128  and  _129
REMARK   54  A    between atoms: _128  and  _131
REMARK   55  A    between atoms: _134  and  _136
REMARK   56  A    between atoms: _136  and  _137
REMARK   57  A    between atoms: _136  and  _139
REMARK   58  A    between atoms: _139  and  _140
REMARK   59  A    between atoms: _145  and  _146
REMARK   60  A    between atoms: _148  and  _150
REMARK   61  A    between atoms: _150  and  _151
REMARK   62  A    between atoms: _150  and  _153
REMARK   63  A    between atoms: _153  and  _154
REMARK   64  A    between atoms: _156  and  _158
REMARK   65  A    between atoms: _158  and  _159
REMARK   66  A    between atoms: _158  and  _161
REMARK   67  A    between atoms: _161  and  _162
REMARK   68  A    between atoms: _162  and  _163
REMARK   69  A    between atoms: _166  and  _168
REMARK   70  A    between atoms: _168  and  _169
REMARK   71  A    between atoms: _168  and  _171
REMARK   72  A    between atoms: _171  and  _172
REMARK   73  A    between atoms: _175  and  _177
REMARK   74  A    between atoms: _177  and  _178
REMARK   75  A    between atoms: _177  and  _180
REMARK   76  A    between atoms: _180  and  _181
REMARK   77  A    between atoms: _181  and  _182
REMARK   78  A    between atoms: _187  and  _189
REMARK   79  A    between atoms: _189  and  _190
REMARK   80  A    between atoms: _189  and  _192
REMARK   81  A    between atoms: _192  and  _193
REMARK   82  A    between atoms: _193  and  _194
REMARK   83  A    between atoms: _199  and  _201
REMARK   84  A    between atoms: _201  and  _202
REMARK   85  A    between atoms: _201  and  _204
REMARK   86  A    between atoms: _204  and  _205
REMARK   87  A    between atoms: _210  and  _212
REMARK   88  A    between atoms: _212  and  _213
REMARK   89  A    between atoms: _212  and  _215
REMARK   90  A    between atoms: _215  and  _216
REMARK   91  A    between atoms: _221  and  _222
REMARK   92  A    between atoms: _224  and  _226
REMARK   93  A    between atoms: _226  and  _227
REMARK   94  A    between atoms: _226  and  _229
REMARK   95  A    between atoms: _229  and  _230
REMARK   96  A    between atoms: _232  and  _234
REMARK   97  A    between atoms: _241  and  _242
REMARK   98  A    between atoms: _247  and  _248
REMARK   99  A    between atoms: _253  and  _255
REMARK  100  A    between atoms: _255  and  _256
REMARK  101  A    between atoms: _255  and  _258
REMARK  102  A    between atoms: _258  and  _259
REMARK  103  A    between atoms: _259  and  _260
REMARK  104  A    between atoms: _264  and  _265
REMARK  105  A    between atoms: _270  and  _272
REMARK  106  A    between atoms: _272  and  _273
REMARK  107  A    between atoms: _272  and  _275
REMARK  108  A    between atoms: _275  and  _276
REMARK  109  A    between atoms: _281  and  _282
REMARK  110  A    between atoms: _284  and  _286
REMARK  111  A    between atoms: _286  and  _287
REMARK  112  A    between atoms: _286  and  _289
REMARK  113  A    between atoms: _289  and  _290
REMARK  114  A    between atoms: _293  and  _295
REMARK  115  A    between atoms: _295  and  _296
REMARK  116  A    between atoms: _295  and  _298
REMARK  117  A    between atoms: _298  and  _299
REMARK  118  A    between atoms: _302  and  _304
REMARK  119  A    between atoms: _304  and  _305
REMARK  120  A    between atoms: _304  and  _307
REMARK  121  A    between atoms: _310  and  _312
REMARK  122  A    between atoms: _312  and  _313
REMARK  123  A    between atoms: _312  and  _315
REMARK  124  A    between atoms: _315  and  _316
REMARK  125  A    between atoms: _321  and  _323
REMARK  126  A    between atoms: _323  and  _324
REMARK  127  A    between atoms: _323  and  _326
REMARK  128  A    between atoms: _326  and  _327
REMARK  129  A    between atoms: _330  and  _332
REMARK  130  A    between atoms: _332  and  _333
REMARK  131  A    between atoms: _332  and  _335
REMARK  132  A    between atoms: _335  and  _336
REMARK  133  A    between atoms: _336  and  _337
REMARK  134  A    between atoms: _342  and  _344
REMARK  135  A    between atoms: _344  and  _345
REMARK  136  A    between atoms: _344  and  _347
REMARK  137  A    between atoms: _347  and  _348
REMARK  138  A    between atoms: _353  and  _354
REMARK  139  A    between atoms: _356  and  _358
REMARK  140  A    between atoms: _358  and  _359
REMARK  141  A    between atoms: _358  and  _361
REMARK  142  A    between atoms: _361  and  _362
REMARK  143  A    between atoms: _362  and  _363
REMARK  144  A    between atoms: _366  and  _368
REMARK  145  A    between atoms: _368  and  _369
REMARK  146  A    between atoms: _368  and  _371
REMARK  147  A    between atoms: _371  and  _372
REMARK  148  A    between atoms: _372  and  _373
REMARK  149  A    between atoms: _378  and  _380
REMARK  150  A    between atoms: _380  and  _381
REMARK  151  A    between atoms: _380  and  _383
REMARK  152  A    between atoms: _383  and  _384
REMARK  153  A    between atoms: _384  and  _385
REMARK  154  A    between atoms: _390  and  _392
REMARK  155  A    between atoms: _392  and  _393
REMARK  156  A    between atoms: _392  and  _395
REMARK  157  A    between atoms: _395  and  _396
REMARK  158  A    between atoms: _396  and  _397
REMARK  159  A    between atoms: _397  and  _398
REMARK  160  A    between atoms: _407  and  _409
REMARK  161  A    between atoms: _409  and  _410
REMARK  162  A    between atoms: _409  and  _412
REMARK  163  A    between atoms: _412  and  _413
REMARK  164  A    between atoms: _416  and  _418
REMARK  165  A    between atoms: _418  and  _419
REMARK  166  A    between atoms: _418  and  _421
REMARK  167  A    between atoms: _421  and  _422
REMARK  168  A    between atoms: _428  and  _430
REMARK  169  A    between atoms: _430  and  _431
REMARK  170  A    between atoms: _430  and  _433
REMARK  171  A    between atoms: _433  and  _434
REMARK  172  A    between atoms: _434  and  _435
REMARK  173  A    between atoms: _435  and  _436
REMARK  174  A    between atoms: _445  and  _447
REMARK  175  A    between atoms: _447  and  _448
REMARK  176  A    between atoms: _447  and  _450
REMARK  177  A    between atoms: _450  and  _451
REMARK  178  A    between atoms: _454  and  _456
REMARK  179  A    between atoms: _456  and  _457
REMARK  180  A    between atoms: _456  and  _459
REMARK  181  A    between atoms: _459  and  _460
REMARK  182  A    between atoms: _463  and  _464
REMARK  183  A    between atoms: _469  and  _471
REMARK  184  A    between atoms: _471  and  _472
REMARK  185  A    between atoms: _471  and  _474
REMARK  186  A    between atoms: _474  and  _475
REMARK  187  A    between atoms: _478  and  _480
REMARK  188  A    between atoms: _480  and  _481
REMARK  189  A    between atoms: _484  and  _486
REMARK  190  A    between atoms: _486  and  _487
REMARK  191  A    between atoms: _486  and  _489
REMARK  192  A    between atoms: _492  and  _494
REMARK  193  A    between atoms: _494  and  _495
REMARK  194  A    between atoms: _494  and  _497
REMARK  195  A    between atoms: _500  and  _502
REMARK  196  A    between atoms: _502  and  _503
REMARK  197  A    between atoms: _502  and  _505
REMARK  198  A    between atoms: _505  and  _506
REMARK  199  A    between atoms: _509  and  _511
REMARK  200  A    between atoms: _511  and  _512
REMARK  201  A    between atoms: _511  and  _514
REMARK  202  A    between atoms: _517  and  _519
REMARK  203  A    between atoms: _519  and  _520
REMARK  204  A    between atoms: _519  and  _522
REMARK  205  A    between atoms: _522  and  _523
REMARK  206  A    between atoms: _523  and  _524
REMARK  207  A    between atoms: _526  and  _528
REMARK  208  A    between atoms: _528  and  _529
REMARK  209  A    between atoms: _528  and  _531
REMARK  210  A    between atoms: _531  and  _532
REMARK  211  A    between atoms: _538  and  _540
REMARK  212  A    between atoms: _540  and  _541
REMARK  213  A    between atoms: _540  and  _543
REMARK  214  A    between atoms: _543  and  _544
REMARK  215  A    between atoms: _548  and  _549
REMARK  216  A    between atoms: _554  and  _556
REMARK  217  A    between atoms: _556  and  _557
REMARK  218  A    between atoms: _560  and  _562
REMARK  219  A    between atoms: _562  and  _563
REMARK  220  A    between atoms: _562  and  _565
REMARK  221  A    between atoms: _565  and  _566
REMARK                            x       y       z     vdW  Elec       q    Type
REMARK                         _______ _______ _______ _____ _____    ______ ____
ROOT
ATOM      1  C   PRO A   7      -9.066  34.769   5.805  0.00  0.00    +0.241 C 
ATOM      2  N   GLU A   8      -7.916  34.185   5.474  0.00  0.00    -0.297 N 
ATOM      3  H   GLU A   8      -7.487  33.509   6.137  0.00  0.00    +0.150 HD
ATOM      4  O   PRO A   7      -9.707  35.483   5.034  0.00  0.00    -0.273 OA
ENDROOT
BRANCH   1  10
ATOM      5  C   CYS A   6      -9.720  32.076   7.316  0.00  0.00    +0.245 C 
ATOM      6  N   PRO A   7      -9.186  33.219   7.790  0.00  0.00    -0.272 N 
ATOM      7  CD  PRO A   7      -8.197  33.370   8.873  0.00  0.00    +0.094 C 
ATOM      8  CG  PRO A   7      -8.339  34.786   9.287  0.00  0.00    +0.024 C 
ATOM      9  CB  PRO A   7      -8.978  35.545   8.192  0.00  0.00    +0.031 C 
ATOM     10  CA  PRO A   7      -9.589  34.517   7.225  0.00  0.00    +0.152 C 
ATOM     11  O   CYS A   6     -10.628  32.064   6.483  0.00  0.00    -0.273 OA
BRANCH   5  16
ATOM     12  CA  CYS A   5     -10.880  27.566   8.806  0.00  0.00    +0.160 C 
ATOM     13  C   CYS A   5     -10.200  28.910   9.061  0.00  0.00    +0.242 C 
ATOM     14  O   CYS A   5      -9.680  29.156  10.153  0.00  0.00    -0.273 OA
ATOM     15  N   CYS A   6     -10.208  29.764   8.041  0.00  0.00    -0.296 N 
ATOM     16  CA  CYS A   6      -9.161  30.756   7.854  0.00  0.00    +0.161 C 
ATOM     17  CB  CYS A   6      -8.138  30.186   6.861  0.00  0.00    +0.098 C 
ATOM     18  SG  CYS A   6      -7.568  28.479   7.226  0.00  0.00    -0.080 S 
ATOM     19  SG  CYS A   5      -9.104  27.206   6.680  0.00  0.00    -0.080 S 
ATOM     20  H   CYS A   6     -10.988  29.721   7.355  0.00  0.00    +0.150 HD
ATOM     21  CB  CYS A   5      -9.819  26.618   8.243  0.00  0.00    +0.098 C 
BRANCH  12  24
ATOM     22  C   SER A   4     -13.077  28.386   8.114  0.00  0.00    +0.243 C 
ATOM     23  O   SER A   4     -13.169  29.143   9.077  0.00  0.00    -0.273 OA
ATOM     24  N   CYS A   5     -12.006  27.639   7.876  0.00  0.00    -0.296 N 
ATOM     25  H   CYS A   5     -11.966  27.086   6.996  0.00  0.00    +0.150 HD
BRANCH  22  26
ATOM     26  CA  SER A   4     -14.217  28.273   7.112  0.00  0.00    +0.178 C 
BRANCH  26  28
ATOM     27  C   TYR A   3     -12.981  28.948   5.100  0.00  0.00    +0.241 C 
ATOM     28  N   SER A   4     -13.794  28.097   5.721  0.00  0.00    -0.295 N 
ATOM     29  H   SER A   4     -14.144  27.271   5.196  0.00  0.00    +0.150 HD
ATOM     30  O   TYR A   3     -12.398  29.863   5.672  0.00  0.00    -0.273 OA
BRANCH  27  31
ATOM     31  CA  TYR A   3     -12.822  28.738   3.598  0.00  0.00    +0.153 C 
BRANCH  31  33
ATOM     32  C   HIS A   2     -13.112  30.485   1.916  0.00  0.00    +0.241 C 
ATOM     33  N   TYR A   3     -12.440  29.989   2.951  0.00  0.00    -0.297 N 
ATOM     34  H   TYR A   3     -11.615  30.510   3.311  0.00  0.00    +0.150 HD
ATOM     35  O   HIS A   2     -14.101  29.937   1.427  0.00  0.00    -0.273 OA
BRANCH  32  36
ATOM     36  CA  HIS A   2     -12.594  31.797   1.344  0.00  0.00    +0.155 C 
BRANCH  36  38
ATOM     37  C   GLN A   1     -11.835  31.730  -0.978  0.00  0.00    +0.238 C 
ATOM     38  N   HIS A   2     -12.827  31.811  -0.097  0.00  0.00    -0.297 N 
ATOM     39  H   HIS A   2     -13.804  31.887  -0.447  0.00  0.00    +0.150 HD
ATOM     40  O   GLN A   1     -10.649  31.719  -0.653  0.00  0.00    -0.274 OA
BRANCH  37  41
ATOM     41  CA  GLN A   1     -12.230  31.621  -2.452  0.00  0.00    +0.145 C 
BRANCH  41  42
ATOM     42  N   GLN A   1     -11.161  32.161  -3.295  0.00  0.00    -0.238 NA
ATOM     43  H   GLN A   1     -10.177  32.062  -2.974  0.00  0.00    +0.142 HD
ENDBRANCH  41  42
BRANCH  41  44
ATOM     44  CB  GLN A   1     -12.451  30.145  -2.811  0.00  0.00    +0.036 C 
BRANCH  44  45
ATOM     45  CG  GLN A   1     -13.894  29.725  -3.059  0.00  0.00    +0.087 C 
BRANCH  45  46
ATOM     46  CD  GLN A   1     -14.742  29.741  -1.812  0.00  0.00    +0.219 C 
ATOM     47  OE1 GLN A   1     -15.100  30.810  -1.306  0.00  0.00    -0.275 OA
ATOM     48  NE2 GLN A   1     -15.090  28.557  -1.316  0.00  0.00    -0.329 N 
ATOM     49 HE21 GLN A   1     -15.688  28.504  -0.467  0.00  0.00    +0.145 HD
ATOM     50 HE22 GLN A   1     -14.764  27.684  -1.777  0.00  0.00    +0.145 HD
ENDBRANCH  45  46
ENDBRANCH  44  45
ENDBRANCH  41  44
ENDBRANCH  37  41
ENDBRANCH  36  38
BRANCH  36  51
ATOM     51  CB  HIS A   2     -13.290  32.977   2.023  0.00  0.00    +0.076 C 
BRANCH  51  52
ATOM     52  CG  HIS A   2     -12.610  34.292   1.798  0.00  0.00    +0.082 A 
ATOM     53  ND1 HIS A   2     -11.553  34.727   2.571  0.00  0.00    -0.227 NA
ATOM     54  CE1 HIS A   2     -11.161  35.915   2.149  0.00  0.00    +0.199 A 
ATOM     55  NE2 HIS A   2     -11.924  36.268   1.130  0.00  0.00    -0.221 NA
ATOM     56  CD2 HIS A   2     -12.839  35.271   0.890  0.00  0.00    +0.115 A 
ENDBRANCH  51  52
ENDBRANCH  36  51
ENDBRANCH  32  36
ENDBRANCH  31  33
BRANCH  31  57
ATOM     57  CB  TYR A   3     -11.807  27.636   3.263  0.00  0.00    +0.055 C 
BRANCH  57  58
ATOM     58  CG  TYR A   3     -11.756  27.360   1.773  0.00  0.00    -0.020 A 
ATOM     59  CD2 TYR A   3     -12.608  26.423   1.192  0.00  0.00    -0.001 A 
ATOM     60  CE2 TYR A   3     -12.591  26.187  -0.174  0.00  0.00    +0.036 A 
ATOM     61  CZ  TYR A   3     -11.725  26.897  -0.977  0.00  0.00    +0.134 A 
ATOM     62  CE1 TYR A   3     -10.872  27.838  -0.430  0.00  0.00    +0.036 A 
ATOM     63  CD1 TYR A   3     -10.894  28.069   0.940  0.00  0.00    -0.001 A 
BRANCH  61  64
ATOM     64  OH  TYR A   3     -11.706  26.663  -2.328  0.00  0.00    -0.506 OA
ATOM     65  HH  TYR A   3     -11.033  27.251  -2.754  0.00  0.00    +0.292 HD
ENDBRANCH  61  64
ENDBRANCH  57  58
ENDBRANCH  31  57
ENDBRANCH  27  31
ENDBRANCH  26  28
BRANCH  26  66
ATOM     66  CB  SER A   4     -15.127  27.117   7.521  0.00  0.00    +0.166 C 
BRANCH  66  67
ATOM     67  OG  SER A   4     -16.282  27.105   6.702  0.00  0.00    -0.380 OA
ATOM     68  H   SER A   4     -16.868  26.354   6.971  0.00  0.00    +0.211 HD
ENDBRANCH  66  67
ENDBRANCH  26  66
ENDBRANCH  22  26
ENDBRANCH  12  24
ENDBRANCH   5  16
ENDBRANCH   1  10
BRANCH   2  69
ATOM     69  CA  GLU A   8      -7.236  34.463   4.208  0.00  0.00    +0.149 C 
BRANCH  69  70
ATOM     70  C   GLU A   8      -7.913  33.741   3.050  0.00  0.00    +0.244 C 
ATOM     71  O   GLU A   8      -8.488  32.666   3.233  0.00  0.00    -0.273 OA
ATOM     72  N   PRO A   9      -7.829  34.320   1.843  0.00  0.00    -0.272 N 
ATOM     73  CD  PRO A   9      -7.205  35.606   1.480  0.00  0.00    +0.094 C 
ATOM     74  CG  PRO A   9      -7.413  35.698  -0.009  0.00  0.00    +0.024 C 
ATOM     75  CB  PRO A   9      -8.534  34.785  -0.321  0.00  0.00    +0.031 C 
ATOM     76  CA  PRO A   9      -8.375  33.648   0.685  0.00  0.00    +0.152 C 
BRANCH  76  77
ATOM     77  C   PRO A   9      -7.388  32.600   0.177  0.00  0.00    +0.241 C 
ATOM     78  O   PRO A   9      -6.176  32.768   0.325  0.00  0.00    -0.273 OA
ATOM     79  N   TYR A  10      -7.911  31.529  -0.405  0.00  0.00    -0.297 N 
ATOM     80  H   TYR A  10      -8.946  31.441  -0.454  0.00  0.00    +0.150 HD
BRANCH  79  81
ATOM     81  CA  TYR A  10      -7.089  30.471  -0.978  0.00  0.00    +0.153 C 
BRANCH  81  82
ATOM     82  C   TYR A  10      -7.301  30.446  -2.485  0.00  0.00    +0.241 C 
ATOM     83  O   TYR A  10      -8.429  30.576  -2.956  0.00  0.00    -0.273 OA
ATOM     84  N   ILE A  11      -6.216  30.262  -3.234  0.00  0.00    -0.297 N 
ATOM     85  H   ILE A  11      -5.302  30.090  -2.768  0.00  0.00    +0.150 HD
BRANCH  84  86
ATOM     86  CA  ILE A  11      -6.275  30.295  -4.695  0.00  0.00    +0.149 C 
BRANCH  86  87
ATOM     87  C   ILE A  11      -6.478  28.883  -5.252  0.00  0.00    +0.241 C 
ATOM     88  O   ILE A  11      -5.899  27.915  -4.745  0.00  0.00    -0.273 OA
ATOM     89  N   ASP A  12      -7.295  28.772  -6.299  0.00  0.00    -0.297 N 
ATOM     90  H   ASP A  12      -7.835  29.605  -6.609  0.00  0.00    +0.150 HD
BRANCH  89  91
ATOM     91  CA  ASP A  12      -7.454  27.514  -7.024  0.00  0.00    +0.160 C 
BRANCH  91  92
ATOM     92  C   ASP A  12      -7.453  27.729  -8.536  0.00  0.00    +0.241 C 
ATOM     93  O   ASP A  12      -7.721  28.828  -9.013  0.00  0.00    -0.273 OA
ATOM     94  N   VAL A  13      -7.118  26.668  -9.267  0.00  0.00    -0.297 N 
ATOM     95  H   VAL A  13      -6.653  25.866  -8.796  0.00  0.00    +0.150 HD
BRANCH  94  96
ATOM     96  CA  VAL A  13      -7.375  26.582 -10.701  0.00  0.00    +0.149 C 
BRANCH  96  97
ATOM     97  C   VAL A  13      -8.498  25.560 -10.867  0.00  0.00    +0.241 C 
ATOM     98  O   VAL A  13      -8.352  24.397 -10.474  0.00  0.00    -0.273 OA
ATOM     99  N   ASN A  14      -9.614  26.023 -11.425  0.00  0.00    -0.298 N 
ATOM    100  H   ASN A  14      -9.630  27.013 -11.742  0.00  0.00    +0.150 HD
BRANCH  99 101
ATOM    101  CA  ASN A  14     -10.816  25.219 -11.617  0.00  0.00    +0.146 C 
BRANCH 101 102
ATOM    102  C   ASN A  14     -10.877  24.609 -13.012  0.00  0.00    +0.227 C 
ATOM    103  O   ASN A  14     -10.881  25.316 -14.016  0.00  0.00    -0.286 OA
ENDBRANCH 101 102
BRANCH 101 104
ATOM    104  CB  ASN A  14     -12.045  26.088 -11.398  0.00  0.00    +0.112 C 
BRANCH 104 105
ATOM    105  CG  ASN A  14     -13.324  25.285 -11.343  0.00  0.00    +0.222 C 
ATOM    106  OD1 ASN A  14     -13.403  24.273 -10.646  0.00  0.00    -0.275 OA
ATOM    107  ND2 ASN A  14     -14.337  25.740 -12.069  0.00  0.00    -0.329 N 
ATOM    108 HD21 ASN A  14     -15.247  25.237 -12.065  0.00  0.00    +0.145 HD
ATOM    109 HD22 ASN A  14     -14.221  26.600 -12.642  0.00  0.00    +0.145 HD
ENDBRANCH 104 105
ENDBRANCH 101 104
ENDBRANCH  99 101
ENDBRANCH  96  97
BRANCH  96 110
ATOM    110  CB  VAL A  13      -6.128  26.167 -11.494  0.00  0.00    +0.027 C 
ATOM    111  CG2 VAL A  13      -5.064  27.280 -11.430  0.00  0.00    +0.002 C 
ATOM    112  CG1 VAL A  13      -6.476  25.850 -12.942  0.00  0.00    +0.002 C 
ENDBRANCH  96 110
ENDBRANCH  94  96
ENDBRANCH  91  92
BRANCH  91 113
ATOM    113  CB  ASP A  12      -8.737  26.785  -6.582  0.00  0.00    +0.143 C 
BRANCH 113 114
ATOM    114  CG  ASP A  12     -10.023  27.484  -7.046  0.00  0.00    +0.367 C 
ATOM    115  OD2 ASP A  12     -10.650  28.190  -6.224  0.00  0.00    -0.246 OA
ATOM    116  OD1 ASP A  12     -10.428  27.318  -8.220  0.00  0.00    -0.246 OA
ENDBRANCH 113 114
ENDBRANCH  91 113
ENDBRANCH  89  91
ENDBRANCH  86  87
BRANCH  86 117
ATOM    117  CB  ILE A  11      -4.984  30.917  -5.313  0.00  0.00    +0.027 C 
ATOM    118  CG2 ILE A  11      -5.176  31.201  -6.793  0.00  0.00    +0.002 C 
BRANCH 117 119
ATOM    119  CG1 ILE A  11      -4.571  32.201  -4.582  0.00  0.00    +0.002 C 
ATOM    120  CD1 ILE A  11      -5.644  33.276  -4.518  0.00  0.00    +0.000 C 
ENDBRANCH 117 119
ENDBRANCH  86 117
ENDBRANCH  84  86
ENDBRANCH  81  82
BRANCH  81 121
ATOM    121  CB  TYR A  10      -7.460  29.116  -0.361  0.00  0.00    +0.055 C 
BRANCH 121 122
ATOM    122  CG  TYR A  10      -6.751  28.821   0.942  0.00  0.00    -0.020 A 
ATOM    123  CD2 TYR A  10      -7.044  29.546   2.092  0.00  0.00    -0.001 A 
ATOM    124  CE2 TYR A  10      -6.395  29.286   3.288  0.00  0.00    +0.036 A 
ATOM    125  CZ  TYR A  10      -5.442  28.288   3.343  0.00  0.00    +0.134 A 
ATOM    126  CE1 TYR A  10      -5.130  27.553   2.214  0.00  0.00    +0.036 A 
ATOM    127  CD1 TYR A  10      -5.784  27.819   1.023  0.00  0.00    -0.001 A 
BRANCH 125 128
ATOM    128  OH  TYR A  10      -4.797  28.032   4.529  0.00  0.00    -0.506 OA
ATOM    129  HH  TYR A  10      -3.824  28.174   4.412  0.00  0.00    +0.292 HD
ENDBRANCH 125 128
ENDBRANCH 121 122
ENDBRANCH  81 121
ENDBRANCH  79  81
ENDBRANCH  76  77
ENDBRANCH  69  70
BRANCH  69 130
ATOM    130  CB  GLU A   8      -5.763  34.036   4.257  0.00  0.00    +0.041 C 
BRANCH 130 131
ATOM    131  CG  GLU A   8      -4.966  34.588   5.439  0.00  0.00    +0.116 C 
BRANCH 131 132
ATOM    132  CD  GLU A   8      -5.031  33.716   6.683  0.00  0.00    +0.365 C 
ATOM    133  OE2 GLU A   8      -4.330  34.044   7.659  0.00  0.00    -0.246 OA
ATOM    134  OE1 GLU A   8      -5.770  32.706   6.690  0.00  0.00    -0.246 OA
ENDBRANCH 131 132
ENDBRANCH 130 131
ENDBRANCH  69 130
ENDBRANCH   2  69
TORSDOF 47
REMARK  Name = ../refined-set-2016/2bys/2bys_pocket.pdb
REMARK  221 active torsions:
REMARK  status: ('A' for Active; 'I' for Inactive)
REMARK    1  A    between atoms: _1  and  _3
REMARK    2  A    between atoms: _3  and  _4
REMARK    3  A    between atoms: _3  and  _6
REMARK    4  A    between atoms: _6  and  _7
REMARK    5  A    between atoms: _10  and  _12
REMARK    6  A    between atoms: _12  and  _13
REMARK    7  A    between atoms: _12  and  _15
REMARK    8  A    between atoms: _15  and  _16
REMARK    9  A    between atoms: _19  and  _21
REMARK   10  A    between atoms: _21  and  _22
REMARK   11  A    between atoms: _21  and  _24
REMARK   12  A    between atoms: _24  and  _25
REMARK   13  A    between atoms: _28  and  _30
REMARK   14  A    between atoms: _30  and  _31
REMARK   15  A    between atoms: _34  and  _36
REMARK   16  A    between atoms: _36  and  _37
REMARK   17  A    between atoms: _36  and  _39
REMARK   18  A    between atoms: _39  and  _40
REMARK   19  A    between atoms: _45  and  _46
REMARK   20  A    between atoms: _48  and  _50
REMARK   21  A    between atoms: _50  and  _51
REMARK   22  A    between atoms: _50  and  _53
REMARK   23  A    between atoms: _53  and  _54
REMARK   24  A    between atoms: _56  and  _58
REMARK   25  A    between atoms: _58  and  _59
REMARK   26  A    between atoms: _58  and  _61
REMARK   27  A    between atoms: _61  and  _62
REMARK   28  A    between atoms: _64  and  _66
REMARK   29  A    between atoms: _66  and  _67
REMARK   30  A    between atoms: _66  and  _69
REMARK   31  A    between atoms: _72  and  _74
REMARK   32  A    between atoms: _74  and  _75
REMARK   33  A    between atoms: _74  and  _77
REMARK   34  A    between atoms: _77  and  _78
REMARK   35  A    between atoms: _78  and  _79
REMARK   36  A    between atoms: _79  and  _80
REMARK   37  A    between atoms: _80  and  _81
REMARK   38  A    between atoms: _85  and  _87
REMARK   39  A    between atoms: _87  and  _88
REMARK   40  A    between atoms: _87  and  _90
REMARK   41  A    between atoms: _90  and  _91
REMARK   42  A    between atoms: _97  and  _99
REMARK   43  A    between atoms: _99  and  _100
REMARK   44  A    between atoms: _102  and  _104
REMARK   45  A    between atoms: _104  and  _105
REMARK   46  A    between atoms: _104  and  _107
REMARK   47  A    between atoms: _107  and  _108
REMARK   48  A    between atoms: _110  and  _112
REMARK   49  A    between atoms: _112  and  _113
REMARK   50  A    between atoms: _112  and  _115
REMARK   51  A    between atoms: _115  and  _116
REMARK   52  A    between atoms: _126  and  _128
REMARK   53  A    between atoms: _128  and  _129
REMARK   54  A    between atoms: _128  and  _131
REMARK   55  A    between atoms: _134  and  _136
REMARK   56  A    between atoms: _136  and  _137
REMARK   57  A    between atoms: _136  and  _139
REMARK   58  A    between atoms: _139  and  _140
REMARK   59  A    between atoms: _145  and  _146
REMARK   60  A    between atoms: _148  and  _150
REMARK   61  A    between atoms: _150  and  _151
REMARK   62  A    between atoms: _150  and  _153
REMARK   63  A    between atoms: _153  and  _154
REMARK   64  A    between atoms: _156  and  _158
REMARK   65  A    between atoms: _158  and  _159
REMARK   66  A    between atoms: _158  and  _161
REMARK   67  A    between atoms: _161  and  _162
REMARK   68  A    between atoms: _162  and  _163
REMARK   69  A    between atoms: _166  and  _168
REMARK   70  A    between atoms: _168  and  _169
REMARK   71  A    between atoms: _168  and  _171
REMARK   72  A    between atoms: _171  and  _172
REMARK   73  A    between atoms: _175  and  _177
REMARK   74  A    between atoms: _177  and  _178
REMARK   75  A    between atoms: _177  and  _180
REMARK   76  A    between atoms: _180  and  _181
REMARK   77  A    between atoms: _181  and  _182
REMARK   78  A    between atoms: _187  and  _189
REMARK   79  A    between atoms: _189  and  _190
REMARK   80  A    between atoms: _189  and  _192
REMARK   81  A    between atoms: _192  and  _193
REMARK   82  A    between atoms: _193  and  _194
REMARK   83  A    between atoms: _199  and  _201
REMARK   84  A    between atoms: _201  and  _202
REMARK   85  A    between atoms: _201  and  _204
REMARK   86  A    between atoms: _204  and  _205
REMARK   87  A    between atoms: _210  and  _212
REMARK   88  A    between atoms: _212  and  _213
REMARK   89  A    between atoms: _212  and  _215
REMARK   90  A    between atoms: _215  and  _216
REMARK   91  A    between atoms: _221  and  _222
REMARK   92  A    between atoms: _224  and  _226
REMARK   93  A    between atoms: _226  and  _227
REMARK   94  A    between atoms: _226  and  _229
REMARK   95  A    between atoms: _229  and  _230
REMARK   96  A    between atoms: _232  and  _234
REMARK   97  A    between atoms: _241  and  _242
REMARK   98  A    between atoms: _247  and  _248
REMARK   99  A    between atoms: _253  and  _255
REMARK  100  A    between atoms: _255  and  _256
REMARK  101  A    between atoms: _255  and  _258
REMARK  102  A    between atoms: _258  and  _259
REMARK  103  A    between atoms: _259  and  _260
REMARK  104  A    between atoms: _264  and  _265
REMARK  105  A    between atoms: _270  and  _272
REMARK  106  A    between atoms: _272  and  _273
REMARK  107  A    between atoms: _272  and  _275
REMARK  108  A    between atoms: _275  and  _276
REMARK  109  A    between atoms: _281  and  _282
REMARK  110  A    between atoms: _284  and  _286
REMARK  111  A    between atoms: _286  and  _287
REMARK  112  A    between atoms: _286  and  _289
REMARK  113  A    between atoms: _289  and  _290
REMARK  114  A    between atoms: _293  and  _295
REMARK  115  A    between atoms: _295  and  _296
REMARK  116  A    between atoms: _295  and  _298
REMARK  117  A    between atoms: _298  and  _299
REMARK  118  A    between atoms: _302  and  _304
REMARK  119  A    between atoms: _304  and  _305
REMARK  120  A    between atoms: _304  and  _307
REMARK  121  A    between atoms: _310  and  _312
REMARK  122  A    between atoms: _312  and  _313
REMARK  123  A    between atoms: _312  and  _315
REMARK  124  A    between atoms: _315  and  _316
REMARK  125  A    between atoms: _321  and  _323
REMARK  126  A    between atoms: _323  and  _324
REMARK  127  A    between atoms: _323  and  _326
REMARK  128  A    between atoms: _326  and  _327
REMARK  129  A    between atoms: _330  and  _332
REMARK  130  A    between atoms: _332  and  _333
REMARK  131  A    between atoms: _332  and  _335
REMARK  132  A    between atoms: _335  and  _336
REMARK  133  A    between atoms: _336  and  _337
REMARK  134  A    between atoms: _342  and  _344
REMARK  135  A    between atoms: _344  and  _345
REMARK  136  A    between atoms: _344  and  _347
REMARK  137  A    between atoms: _347  and  _348
REMARK  138  A    between atoms: _353  and  _354
REMARK  139  A    between atoms: _356  and  _358
REMARK  140  A    between atoms: _358  and  _359
REMARK  141  A    between atoms: _358  and  _361
REMARK  142  A    between atoms: _361  and  _362
REMARK  143  A    between atoms: _362  and  _363
REMARK  144  A    between atoms: _366  and  _368
REMARK  145  A    between atoms: _368  and  _369
REMARK  146  A    between atoms: _368  and  _371
REMARK  147  A    between atoms: _371  and  _372
REMARK  148  A    between atoms: _372  and  _373
REMARK  149  A    between atoms: _378  and  _380
REMARK  150  A    between atoms: _380  and  _381
REMARK  151  A    between atoms: _380  and  _383
REMARK  152  A    between atoms: _383  and  _384
REMARK  153  A    between atoms: _384  and  _385
REMARK  154  A    between atoms: _390  and  _392
REMARK  155  A    between atoms: _392  and  _393
REMARK  156  A    between atoms: _392  and  _395
REMARK  157  A    between atoms: _395  and  _396
REMARK  158  A    between atoms: _396  and  _397
REMARK  159  A    between atoms: _397  and  _398
REMARK  160  A    between atoms: _407  and  _409
REMARK  161  A    between atoms: _409  and  _410
REMARK  162  A    between atoms: _409  and  _412
REMARK  163  A    between atoms: _412  and  _413
REMARK  164  A    between atoms: _416  and  _418
REMARK  165  A    between atoms: _418  and  _419
REMARK  166  A    between atoms: _418  and  _421
REMARK  167  A    between atoms: _421  and  _422
REMARK  168  A    between atoms: _428  and  _430
REMARK  169  A    between atoms: _430  and  _431
REMARK  170  A    between atoms: _430  and  _433
REMARK  171  A    between atoms: _433  and  _434
REMARK  172  A    between atoms: _434  and  _435
REMARK  173  A    between atoms: _435  and  _436
REMARK  174  A    between atoms: _445  and  _447
REMARK  175  A    between atoms: _447  and  _448
REMARK  176  A    between atoms: _447  and  _450
REMARK  177  A    between atoms: _450  and  _451
REMARK  178  A    between atoms: _454  and  _456
REMARK  179  A    between atoms: _456  and  _457
REMARK  180  A    between atoms: _456  and  _459
REMARK  181  A    between atoms: _459  and  _460
REMARK  182  A    between atoms: _463  and  _464
REMARK  183  A    between atoms: _469  and  _471
REMARK  184  A    between atoms: _471  and  _472
REMARK  185  A    between atoms: _471  and  _474
REMARK  186  A    between atoms: _474  and  _475
REMARK  187  A    between atoms: _478  and  _480
REMARK  188  A    between atoms: _480  and  _481
REMARK  189  A    between atoms: _484  and  _486
REMARK  190  A    between atoms: _486  and  _487
REMARK  191  A    between atoms: _486  and  _489
REMARK  192  A    between atoms: _492  and  _494
REMARK  193  A    between atoms: _494  and  _495
REMARK  194  A    between atoms: _494  and  _497
REMARK  195  A    between atoms: _500  and  _502
REMARK  196  A    between atoms: _502  and  _503
REMARK  197  A    between atoms: _502  and  _505
REMARK  198  A    between atoms: _505  and  _506
REMARK  199  A    between atoms: _509  and  _511
REMARK  200  A    between atoms: _511  and  _512
REMARK  201  A    between atoms: _511  and  _514
REMARK  202  A    between atoms: _517  and  _519
REMARK  203  A    between atoms: _519  and  _520
REMARK  204  A    between atoms: _519  and  _522
REMARK  205  A    between atoms: _522  and  _523
REMARK  206  A    between atoms: _523  and  _524
REMARK  207  A    between atoms: _526  and  _528
REMARK  208  A    between atoms: _528  and  _529
REMARK  209  A    between atoms: _528  and  _531
REMARK  210  A    between atoms: _531  and  _532
REMARK  211  A    between atoms: _538  and  _540
REMARK  212  A    between atoms: _540  and  _541
REMARK  213  A    between atoms: _540  and  _543
REMARK  214  A    between atoms: _543  and  _544
REMARK  215  A    between atoms: _548  and  _549
REMARK  216  A    between atoms: _554  and  _556
REMARK  217  A    between atoms: _556  and  _557
REMARK  218  A    between atoms: _560  and  _562
REMARK  219  A    between atoms: _562  and  _563
REMARK  220  A    between atoms: _562  and  _565
REMARK  221  A    between atoms: _565  and  _566
REMARK                            x       y       z     vdW  Elec       q    Type
REMARK                         _______ _______ _______ _____ _____    ______ ____
ROOT
ATOM      1  CA  THR A   1     -17.247  19.347   7.338  0.00  0.00    +0.160 C 
ENDROOT
BRANCH   1   2
ATOM      2  N   THR A   1     -16.671  18.744   8.530  0.00  0.00    -0.237 NA
ATOM      3  H   THR A   1     -15.809  18.171   8.425  0.00  0.00    +0.142 HD
ENDBRANCH   1   2
BRANCH   1   4
ATOM      4  CB  THR A   1     -16.251  20.328   6.675  0.00  0.00    +0.134 C 
ATOM      5  CG2 THR A   1     -16.840  20.970   5.435  0.00  0.00    +0.034 C 
BRANCH   4   6
ATOM      6  OG1 THR A   1     -15.905  21.360   7.604  0.00  0.00    -0.383 OA
ATOM      7  HG1 THR A   1     -15.268  21.986   7.178  0.00  0.00    +0.210 HD
ENDBRANCH   4   6
ENDBRANCH   1   4
BRANCH   1   8
ATOM      8  C   THR A   1     -17.581  18.197   6.392  0.00  0.00    +0.227 C 
ATOM      9  O   THR A   1     -16.681  17.551   5.866  0.00  0.00    -0.287 OA
ENDBRANCH   1   8
TORSDOF 4
REMARK  Name = ../refined-set-2016/2bys/2bys_pocket.pdb
REMARK  221 active torsions:
REMARK  status: ('A' for Active; 'I' for Inactive)
REMARK    1  A    between atoms: _1  and  _3
REMARK    2  A    between atoms: _3  and  _4
REMARK    3  A    between atoms: _3  and  _6
REMARK    4  A    between atoms: _6  and  _7
REMARK    5  A    between atoms: _10  and  _12
REMARK    6  A    between atoms: _12  and  _13
REMARK    7  A    between atoms: _12  and  _15
REMARK    8  A    between atoms: _15  and  _16
REMARK    9  A    between atoms: _19  and  _21
REMARK   10  A    between atoms: _21  and  _22
REMARK   11  A    between atoms: _21  and  _24
REMARK   12  A    between atoms: _24  and  _25
REMARK   13  A    between atoms: _28  and  _30
REMARK   14  A    between atoms: _30  and  _31
REMARK   15  A    between atoms: _34  and  _36
REMARK   16  A    between atoms: _36  and  _37
REMARK   17  A    between atoms: _36  and  _39
REMARK   18  A    between atoms: _39  and  _40
REMARK   19  A    between atoms: _45  and  _46
REMARK   20  A    between atoms: _48  and  _50
REMARK   21  A    between atoms: _50  and  _51
REMARK   22  A    between atoms: _50  and  _53
REMARK   23  A    between atoms: _53  and  _54
REMARK   24  A    between atoms: _56  and  _58
REMARK   25  A    between atoms: _58  and  _59
REMARK   26  A    between atoms: _58  and  _61
REMARK   27  A    between atoms: _61  and  _62
REMARK   28  A    between atoms: _64  and  _66
REMARK   29  A    between atoms: _66  and  _67
REMARK   30  A    between atoms: _66  and  _69
REMARK   31  A    between atoms: _72  and  _74
REMARK   32  A    between atoms: _74  and  _75
REMARK   33  A    between atoms: _74  and  _77
REMARK   34  A    between atoms: _77  and  _78
REMARK   35  A    between atoms: _78  and  _79
REMARK   36  A    between atoms: _79  and  _80
REMARK   37  A    between atoms: _80  and  _81
REMARK   38  A    between atoms: _85  and  _87
REMARK   39  A    between atoms: _87  and  _88
REMARK   40  A    between atoms: _87  and  _90
REMARK   41  A    between atoms: _90  and  _91
REMARK   42  A    between atoms: _97  and  _99
REMARK   43  A    between atoms: _99  and  _100
REMARK   44  A    between atoms: _102  and  _104
REMARK   45  A    between atoms: _104  and  _105
REMARK   46  A    between atoms: _104  and  _107
REMARK   47  A    between atoms: _107  and  _108
REMARK   48  A    between atoms: _110  and  _112
REMARK   49  A    between atoms: _112  and  _113
REMARK   50  A    between atoms: _112  and  _115
REMARK   51  A    between atoms: _115  and  _116
REMARK   52  A    between atoms: _126  and  _128
REMARK   53  A    between atoms: _128  and  _129
REMARK   54  A    between atoms: _128  and  _131
REMARK   55  A    between atoms: _134  and  _136
REMARK   56  A    between atoms: _136  and  _137
REMARK   57  A    between atoms: _136  and  _139
REMARK   58  A    between atoms: _139  and  _140
REMARK   59  A    between atoms: _145  and  _146
REMARK   60  A    between atoms: _148  and  _150
REMARK   61  A    between atoms: _150  and  _151
REMARK   62  A    between atoms: _150  and  _153
REMARK   63  A    between atoms: _153  and  _154
REMARK   64  A    between atoms: _156  and  _158
REMARK   65  A    between atoms: _158  and  _159
REMARK   66  A    between atoms: _158  and  _161
REMARK   67  A    between atoms: _161  and  _162
REMARK   68  A    between atoms: _162  and  _163
REMARK   69  A    between atoms: _166  and  _168
REMARK   70  A    between atoms: _168  and  _169
REMARK   71  A    between atoms: _168  and  _171
REMARK   72  A    between atoms: _171  and  _172
REMARK   73  A    between atoms: _175  and  _177
REMARK   74  A    between atoms: _177  and  _178
REMARK   75  A    between atoms: _177  and  _180
REMARK   76  A    between atoms: _180  and  _181
REMARK   77  A    between atoms: _181  and  _182
REMARK   78  A    between atoms: _187  and  _189
REMARK   79  A    between atoms: _189  and  _190
REMARK   80  A    between atoms: _189  and  _192
REMARK   81  A    between atoms: _192  and  _193
REMARK   82  A    between atoms: _193  and  _194
REMARK   83  A    between atoms: _199  and  _201
REMARK   84  A    between atoms: _201  and  _202
REMARK   85  A    between atoms: _201  and  _204
REMARK   86  A    between atoms: _204  and  _205
REMARK   87  A    between atoms: _210  and  _212
REMARK   88  A    between atoms: _212  and  _213
REMARK   89  A    between atoms: _212  and  _215
REMARK   90  A    between atoms: _215  and  _216
REMARK   91  A    between atoms: _221  and  _222
REMARK   92  A    between atoms: _224  and  _226
REMARK   93  A    between atoms: _226  and  _227
REMARK   94  A    between atoms: _226  and  _229
REMARK   95  A    between atoms: _229  and  _230
REMARK   96  A    between atoms: _232  and  _234
REMARK   97  A    between atoms: _241  and  _242
REMARK   98  A    between atoms: _247  and  _248
REMARK   99  A    between atoms: _253  and  _255
REMARK  100  A    between atoms: _255  and  _256
REMARK  101  A    between atoms: _255  and  _258
REMARK  102  A    between atoms: _258  and  _259
REMARK  103  A    between atoms: _259  and  _260
REMARK  104  A    between atoms: _264  and  _265
REMARK  105  A    between atoms: _270  and  _272
REMARK  106  A    between atoms: _272  and  _273
REMARK  107  A    between atoms: _272  and  _275
REMARK  108  A    between atoms: _275  and  _276
REMARK  109  A    between atoms: _281  and  _282
REMARK  110  A    between atoms: _284  and  _286
REMARK  111  A    between atoms: _286  and  _287
REMARK  112  A    between atoms: _286  and  _289
REMARK  113  A    between atoms: _289  and  _290
REMARK  114  A    between atoms: _293  and  _295
REMARK  115  A    between atoms: _295  and  _296
REMARK  116  A    between atoms: _295  and  _298
REMARK  117  A    between atoms: _298  and  _299
REMARK  118  A    between atoms: _302  and  _304
REMARK  119  A    between atoms: _304  and  _305
REMARK  120  A    between atoms: _304  and  _307
REMARK  121  A    between atoms: _310  and  _312
REMARK  122  A    between atoms: _312  and  _313
REMARK  123  A    between atoms: _312  and  _315
REMARK  124  A    between atoms: _315  and  _316
REMARK  125  A    between atoms: _321  and  _323
REMARK  126  A    between atoms: _323  and  _324
REMARK  127  A    between atoms: _323  and  _326
REMARK  128  A    between atoms: _326  and  _327
REMARK  129  A    between atoms: _330  and  _332
REMARK  130  A    between atoms: _332  and  _333
REMARK  131  A    between atoms: _332  and  _335
REMARK  132  A    between atoms: _335  and  _336
REMARK  133  A    between atoms: _336  and  _337
REMARK  134  A    between atoms: _342  and  _344
REMARK  135  A    between atoms: _344  and  _345
REMARK  136  A    between atoms: _344  and  _347
REMARK  137  A    between atoms: _347  and  _348
REMARK  138  A    between atoms: _353  and  _354
REMARK  139  A    between atoms: _356  and  _358
REMARK  140  A    between atoms: _358  and  _359
REMARK  141  A    between atoms: _358  and  _361
REMARK  142  A    between atoms: _361  and  _362
REMARK  143  A    between atoms: _362  and  _363
REMARK  144  A    between atoms: _366  and  _368
REMARK  145  A    between atoms: _368  and  _369
REMARK  146  A    between atoms: _368  and  _371
REMARK  147  A    between atoms: _371  and  _372
REMARK  148  A    between atoms: _372  and  _373
REMARK  149  A    between atoms: _378  and  _380
REMARK  150  A    between atoms: _380  and  _381
REMARK  151  A    between atoms: _380  and  _383
REMARK  152  A    between atoms: _383  and  _384
REMARK  153  A    between atoms: _384  and  _385
REMARK  154  A    between atoms: _390  and  _392
REMARK  155  A    between atoms: _392  and  _393
REMARK  156  A    between atoms: _392  and  _395
REMARK  157  A    between atoms: _395  and  _396
REMARK  158  A    between atoms: _396  and  _397
REMARK  159  A    between atoms: _397  and  _398
REMARK  160  A    between atoms: _407  and  _409
REMARK  161  A    between atoms: _409  and  _410
REMARK  162  A    between atoms: _409  and  _412
REMARK  163  A    between atoms: _412  and  _413
REMARK  164  A    between atoms: _416  and  _418
REMARK  165  A    between atoms: _418  and  _419
REMARK  166  A    between atoms: _418  and  _421
REMARK  167  A    between atoms: _421  and  _422
REMARK  168  A    between atoms: _428  and  _430
REMARK  169  A    between atoms: _430  and  _431
REMARK  170  A    between atoms: _430  and  _433
REMARK  171  A    between atoms: _433  and  _434
REMARK  172  A    between atoms: _434  and  _435
REMARK  173  A    between atoms: _435  and  _436
REMARK  174  A    between atoms: _445  and  _447
REMARK  175  A    between atoms: _447  and  _448
REMARK  176  A    between atoms: _447  and  _450
REMARK  177  A    between atoms: _450  and  _451
REMARK  178  A    between atoms: _454  and  _456
REMARK  179  A    between atoms: _456  and  _457
REMARK  180  A    between atoms: _456  and  _459
REMARK  181  A    between atoms: _459  and  _460
REMARK  182  A    between atoms: _463  and  _464
REMARK  183  A    between atoms: _469  and  _471
REMARK  184  A    between atoms: _471  and  _472
REMARK  185  A    between atoms: _471  and  _474
REMARK  186  A    between atoms: _474  and  _475
REMARK  187  A    between atoms: _478  and  _480
REMARK  188  A    between atoms: _480  and  _481
REMARK  189  A    between atoms: _484  and  _486
REMARK  190  A    between atoms: _486  and  _487
REMARK  191  A    between atoms: _486  and  _489
REMARK  192  A    between atoms: _492  and  _494
REMARK  193  A    between atoms: _494  and  _495
REMARK  194  A    between atoms: _494  and  _497
REMARK  195  A    between atoms: _500  and  _502
REMARK  196  A    between atoms: _502  and  _503
REMARK  197  A    between atoms: _502  and  _505
REMARK  198  A    between atoms: _505  and  _506
REMARK  199  A    between atoms: _509  and  _511
REMARK  200  A    between atoms: _511  and  _512
REMARK  201  A    between atoms: _511  and  _514
REMARK  202  A    between atoms: _517  and  _519
REMARK  203  A    between atoms: _519  and  _520
REMARK  204  A    between atoms: _519  and  _522
REMARK  205  A    between atoms: _522  and  _523
REMARK  206  A    between atoms: _523  and  _524
REMARK  207  A    between atoms: _526  and  _528
REMARK  208  A    between atoms: _528  and  _529
REMARK  209  A    between atoms: _528  and  _531
REMARK  210  A    between atoms: _531  and  _532
REMARK  211  A    between atoms: _538  and  _540
REMARK  212  A    between atoms: _540  and  _541
REMARK  213  A    between atoms: _540  and  _543
REMARK  214  A    between atoms: _543  and  _544
REMARK  215  A    between atoms: _548  and  _549
REMARK  216  A    between atoms: _554  and  _556
REMARK  217  A    between atoms: _556  and  _557
REMARK  218  A    between atoms: _560  and  _562
REMARK  219  A    between atoms: _562  and  _563
REMARK  220  A    between atoms: _562  and  _565
REMARK  221  A    between atoms: _565  and  _566
REMARK                            x       y       z     vdW  Elec       q    Type
REMARK                         _______ _______ _______ _____ _____    ______ ____
ROOT
ATOM      1  CB  GLN A   1     -16.895  16.701   1.162  0.00  0.00    +0.035 C 
ENDROOT
BRANCH   1   2
ATOM      2  CA  GLN A   1     -18.328  16.934   1.644  0.00  0.00    +0.134 C 
BRANCH   2   3
ATOM      3  N   GLN A   1     -18.463  16.584   3.061  0.00  0.00    -0.239 NA
ATOM      4  H   GLN A   1     -17.887  15.807   3.443  0.00  0.00    +0.142 HD
ENDBRANCH   2   3
BRANCH   2   5
ATOM      5  C   GLN A   1     -19.271  16.149   0.745  0.00  0.00    +0.224 C 
ATOM      6  O   GLN A   1     -19.799  16.684  -0.227  0.00  0.00    -0.287 OA
ENDBRANCH   2   5
ENDBRANCH   1   2
BRANCH   1   7
ATOM      7  CG  GLN A   1     -15.977  17.882   1.277  0.00  0.00    +0.087 C 
BRANCH   7   8
ATOM      8  CD  GLN A   1     -14.675  17.652   0.544  0.00  0.00    +0.219 C 
ATOM      9  OE1 GLN A   1     -13.898  16.777   0.925  0.00  0.00    -0.275 OA
ATOM     10  NE2 GLN A   1     -14.429  18.433  -0.521  0.00  0.00    -0.329 N 
ATOM     11 HE21 GLN A   1     -15.118  19.159  -0.803  0.00  0.00    +0.145 HD
ATOM     12 HE22 GLN A   1     -13.550  18.311  -1.063  0.00  0.00    +0.145 HD
ENDBRANCH   7   8
ENDBRANCH   1   7
TORSDOF 5
REMARK  Name = ../refined-set-2016/2bys/2bys_pocket.pdb
REMARK  221 active torsions:
REMARK  status: ('A' for Active; 'I' for Inactive)
REMARK    1  A    between atoms: _1  and  _3
REMARK    2  A    between atoms: _3  and  _4
REMARK    3  A    between atoms: _3  and  _6
REMARK    4  A    between atoms: _6  and  _7
REMARK    5  A    between atoms: _10  and  _12
REMARK    6  A    between atoms: _12  and  _13
REMARK    7  A    between atoms: _12  and  _15
REMARK    8  A    between atoms: _15  and  _16
REMARK    9  A    between atoms: _19  and  _21
REMARK   10  A    between atoms: _21  and  _22
REMARK   11  A    between atoms: _21  and  _24
REMARK   12  A    between atoms: _24  and  _25
REMARK   13  A    between atoms: _28  and  _30
REMARK   14  A    between atoms: _30  and  _31
REMARK   15  A    between atoms: _34  and  _36
REMARK   16  A    between atoms: _36  and  _37
REMARK   17  A    between atoms: _36  and  _39
REMARK   18  A    between atoms: _39  and  _40
REMARK   19  A    between atoms: _45  and  _46
REMARK   20  A    between atoms: _48  and  _50
REMARK   21  A    between atoms: _50  and  _51
REMARK   22  A    between atoms: _50  and  _53
REMARK   23  A    between atoms: _53  and  _54
REMARK   24  A    between atoms: _56  and  _58
REMARK   25  A    between atoms: _58  and  _59
REMARK   26  A    between atoms: _58  and  _61
REMARK   27  A    between atoms: _61  and  _62
REMARK   28  A    between atoms: _64  and  _66
REMARK   29  A    between atoms: _66  and  _67
REMARK   30  A    between atoms: _66  and  _69
REMARK   31  A    between atoms: _72  and  _74
REMARK   32  A    between atoms: _74  and  _75
REMARK   33  A    between atoms: _74  and  _77
REMARK   34  A    between atoms: _77  and  _78
REMARK   35  A    between atoms: _78  and  _79
REMARK   36  A    between atoms: _79  and  _80
REMARK   37  A    between atoms: _80  and  _81
REMARK   38  A    between atoms: _85  and  _87
REMARK   39  A    between atoms: _87  and  _88
REMARK   40  A    between atoms: _87  and  _90
REMARK   41  A    between atoms: _90  and  _91
REMARK   42  A    between atoms: _97  and  _99
REMARK   43  A    between atoms: _99  and  _100
REMARK   44  A    between atoms: _102  and  _104
REMARK   45  A    between atoms: _104  and  _105
REMARK   46  A    between atoms: _104  and  _107
REMARK   47  A    between atoms: _107  and  _108
REMARK   48  A    between atoms: _110  and  _112
REMARK   49  A    between atoms: _112  and  _113
REMARK   50  A    between atoms: _112  and  _115
REMARK   51  A    between atoms: _115  and  _116
REMARK   52  A    between atoms: _126  and  _128
REMARK   53  A    between atoms: _128  and  _129
REMARK   54  A    between atoms: _128  and  _131
REMARK   55  A    between atoms: _134  and  _136
REMARK   56  A    between atoms: _136  and  _137
REMARK   57  A    between atoms: _136  and  _139
REMARK   58  A    between atoms: _139  and  _140
REMARK   59  A    between atoms: _145  and  _146
REMARK   60  A    between atoms: _148  and  _150
REMARK   61  A    between atoms: _150  and  _151
REMARK   62  A    between atoms: _150  and  _153
REMARK   63  A    between atoms: _153  and  _154
REMARK   64  A    between atoms: _156  and  _158
REMARK   65  A    between atoms: _158  and  _159
REMARK   66  A    between atoms: _158  and  _161
REMARK   67  A    between atoms: _161  and  _162
REMARK   68  A    between atoms: _162  and  _163
REMARK   69  A    between atoms: _166  and  _168
REMARK   70  A    between atoms: _168  and  _169
REMARK   71  A    between atoms: _168  and  _171
REMARK   72  A    between atoms: _171  and  _172
REMARK   73  A    between atoms: _175  and  _177
REMARK   74  A    between atoms: _177  and  _178
REMARK   75  A    between atoms: _177  and  _180
REMARK   76  A    between atoms: _180  and  _181
REMARK   77  A    between atoms: _181  and  _182
REMARK   78  A    between atoms: _187  and  _189
REMARK   79  A    between atoms: _189  and  _190
REMARK   80  A    between atoms: _189  and  _192
REMARK   81  A    between atoms: _192  and  _193
REMARK   82  A    between atoms: _193  and  _194
REMARK   83  A    between atoms: _199  and  _201
REMARK   84  A    between atoms: _201  and  _202
REMARK   85  A    between atoms: _201  and  _204
REMARK   86  A    between atoms: _204  and  _205
REMARK   87  A    between atoms: _210  and  _212
REMARK   88  A    between atoms: _212  and  _213
REMARK   89  A    between atoms: _212  and  _215
REMARK   90  A    between atoms: _215  and  _216
REMARK   91  A    between atoms: _221  and  _222
REMARK   92  A    between atoms: _224  and  _226
REMARK   93  A    between atoms: _226  and  _227
REMARK   94  A    between atoms: _226  and  _229
REMARK   95  A    between atoms: _229  and  _230
REMARK   96  A    between atoms: _232  and  _234
REMARK   97  A    between atoms: _241  and  _242
REMARK   98  A    between atoms: _247  and  _248
REMARK   99  A    between atoms: _253  and  _255
REMARK  100  A    between atoms: _255  and  _256
REMARK  101  A    between atoms: _255  and  _258
REMARK  102  A    between atoms: _258  and  _259
REMARK  103  A    between atoms: _259  and  _260
REMARK  104  A    between atoms: _264  and  _265
REMARK  105  A    between atoms: _270  and  _272
REMARK  106  A    between atoms: _272  and  _273
REMARK  107  A    between atoms: _272  and  _275
REMARK  108  A    between atoms: _275  and  _276
REMARK  109  A    between atoms: _281  and  _282
REMARK  110  A    between atoms: _284  and  _286
REMARK  111  A    between atoms: _286  and  _287
REMARK  112  A    between atoms: _286  and  _289
REMARK  113  A    between atoms: _289  and  _290
REMARK  114  A    between atoms: _293  and  _295
REMARK  115  A    between atoms: _295  and  _296
REMARK  116  A    between atoms: _295  and  _298
REMARK  117  A    between atoms: _298  and  _299
REMARK  118  A    between atoms: _302  and  _304
REMARK  119  A    between atoms: _304  and  _305
REMARK  120  A    between atoms: _304  and  _307
REMARK  121  A    between atoms: _310  and  _312
REMARK  122  A    between atoms: _312  and  _313
REMARK  123  A    between atoms: _312  and  _315
REMARK  124  A    between atoms: _315  and  _316
REMARK  125  A    between atoms: _321  and  _323
REMARK  126  A    between atoms: _323  and  _324
REMARK  127  A    between atoms: _323  and  _326
REMARK  128  A    between atoms: _326  and  _327
REMARK  129  A    between atoms: _330  and  _332
REMARK  130  A    between atoms: _332  and  _333
REMARK  131  A    between atoms: _332  and  _335
REMARK  132  A    between atoms: _335  and  _336
REMARK  133  A    between atoms: _336  and  _337
REMARK  134  A    between atoms: _342  and  _344
REMARK  135  A    between atoms: _344  and  _345
REMARK  136  A    between atoms: _344  and  _347
REMARK  137  A    between atoms: _347  and  _348
REMARK  138  A    between atoms: _353  and  _354
REMARK  139  A    between atoms: _356  and  _358
REMARK  140  A    between atoms: _358  and  _359
REMARK  141  A    between atoms: _358  and  _361
REMARK  142  A    between atoms: _361  and  _362
REMARK  143  A    between atoms: _362  and  _363
REMARK  144  A    between atoms: _366  and  _368
REMARK  145  A    between atoms: _368  and  _369
REMARK  146  A    between atoms: _368  and  _371
REMARK  147  A    between atoms: _371  and  _372
REMARK  148  A    between atoms: _372  and  _373
REMARK  149  A    between atoms: _378  and  _380
REMARK  150  A    between atoms: _380  and  _381
REMARK  151  A    between atoms: _380  and  _383
REMARK  152  A    between atoms: _383  and  _384
REMARK  153  A    between atoms: _384  and  _385
REMARK  154  A    between atoms: _390  and  _392
REMARK  155  A    between atoms: _392  and  _393
REMARK  156  A    between atoms: _392  and  _395
REMARK  157  A    between atoms: _395  and  _396
REMARK  158  A    between atoms: _396  and  _397
REMARK  159  A    between atoms: _397  and  _398
REMARK  160  A    between atoms: _407  and  _409
REMARK  161  A    between atoms: _409  and  _410
REMARK  162  A    between atoms: _409  and  _412
REMARK  163  A    between atoms: _412  and  _413
REMARK  164  A    between atoms: _416  and  _418
REMARK  165  A    between atoms: _418  and  _419
REMARK  166  A    between atoms: _418  and  _421
REMARK  167  A    between atoms: _421  and  _422
REMARK  168  A    between atoms: _428  and  _430
REMARK  169  A    between atoms: _430  and  _431
REMARK  170  A    between atoms: _430  and  _433
REMARK  171  A    between atoms: _433  and  _434
REMARK  172  A    between atoms: _434  and  _435
REMARK  173  A    between atoms: _435  and  _436
REMARK  174  A    between atoms: _445  and  _447
REMARK  175  A    between atoms: _447  and  _448
REMARK  176  A    between atoms: _447  and  _450
REMARK  177  A    between atoms: _450  and  _451
REMARK  178  A    between atoms: _454  and  _456
REMARK  179  A    between atoms: _456  and  _457
REMARK  180  A    between atoms: _456  and  _459
REMARK  181  A    between atoms: _459  and  _460
REMARK  182  A    between atoms: _463  and  _464
REMARK  183  A    between atoms: _469  and  _471
REMARK  184  A    between atoms: _471  and  _472
REMARK  185  A    between atoms: _471  and  _474
REMARK  186  A    between atoms: _474  and  _475
REMARK  187  A    between atoms: _478  and  _480
REMARK  188  A    between atoms: _480  and  _481
REMARK  189  A    between atoms: _484  and  _486
REMARK  190  A    between atoms: _486  and  _487
REMARK  191  A    between atoms: _486  and  _489
REMARK  192  A    between atoms: _492  and  _494
REMARK  193  A    between atoms: _494  and  _495
REMARK  194  A    between atoms: _494  and  _497
REMARK  195  A    between atoms: _500  and  _502
REMARK  196  A    between atoms: _502  and  _503
REMARK  197  A    between atoms: _502  and  _505
REMARK  198  A    between atoms: _505  and  _506
REMARK  199  A    between atoms: _509  and  _511
REMARK  200  A    between atoms: _511  and  _512
REMARK  201  A    between atoms: _511  and  _514
REMARK  202  A    between atoms: _517  and  _519
REMARK  203  A    between atoms: _519  and  _520
REMARK  204  A    between atoms: _519  and  _522
REMARK  205  A    between atoms: _522  and  _523
REMARK  206  A    between atoms: _523  and  _524
REMARK  207  A    between atoms: _526  and  _528
REMARK  208  A    between atoms: _528  and  _529
REMARK  209  A    between atoms: _528  and  _531
REMARK  210  A    between atoms: _531  and  _532
REMARK  211  A    between atoms: _538  and  _540
REMARK  212  A    between atoms: _540  and  _541
REMARK  213  A    between atoms: _540  and  _543
REMARK  214  A    between atoms: _543  and  _544
REMARK  215  A    between atoms: _548  and  _549
REMARK  216  A    between atoms: _554  and  _556
REMARK  217  A    between atoms: _556  and  _557
REMARK  218  A    between atoms: _560  and  _562
REMARK  219  A    between atoms: _562  and  _563
REMARK  220  A    between atoms: _562  and  _565
REMARK  221  A    between atoms: _565  and  _566
REMARK                            x       y       z     vdW  Elec       q    Type
REMARK                         _______ _______ _______ _____ _____    ______ ____
ROOT
ATOM      1  CA  GLN A   3     -10.710  20.076  11.848  0.00  0.00    +0.149 C 
ENDROOT
BRANCH   1   3
ATOM      2  C   GLU A   2     -10.962  17.908  10.799  0.00  0.00    +0.241 C 
ATOM      3  N   GLN A   3     -11.527  19.024  11.246  0.00  0.00    -0.297 N 
ATOM      4  H   GLN A   3     -12.556  19.150  11.167  0.00  0.00    +0.150 HD
ATOM      5  O   GLU A   2      -9.754  17.736  10.791  0.00  0.00    -0.273 OA
BRANCH   2   6
ATOM      6  CA  GLU A   2     -11.880  16.838  10.255  0.00  0.00    +0.149 C 
BRANCH   6   8
ATOM      7  C   TYR A   1     -12.805  17.131   8.013  0.00  0.00    +0.239 C 
ATOM      8  N   GLU A   2     -11.774  16.877   8.808  0.00  0.00    -0.297 N 
ATOM      9  H   GLU A   2     -10.846  16.697   8.374  0.00  0.00    +0.150 HD
ATOM     10  O   TYR A   1     -13.915  17.493   8.421  0.00  0.00    -0.274 OA
BRANCH   7  11
ATOM     11  CA  TYR A   1     -12.546  16.838   6.538  0.00  0.00    +0.149 C 
BRANCH  11  12
ATOM     12  N   TYR A   1     -13.785  16.515   5.850  0.00  0.00    -0.238 NA
ATOM     13  H   TYR A   1     -14.555  17.212   5.796  0.00  0.00    +0.142 HD
ENDBRANCH  11  12
BRANCH  11  14
ATOM     14  CB  TYR A   1     -11.675  17.883   5.815  0.00  0.00    +0.053 C 
BRANCH  14  15
ATOM     15  CG  TYR A   1     -12.330  19.038   5.107  0.00  0.00    -0.020 A 
ATOM     16  CD2 TYR A   1     -12.655  20.196   5.796  0.00  0.00    -0.001 A 
ATOM     17  CE2 TYR A   1     -13.209  21.290   5.146  0.00  0.00    +0.036 A 
ATOM     18  CZ  TYR A   1     -13.421  21.246   3.778  0.00  0.00    +0.134 A 
ATOM     19  CE1 TYR A   1     -13.079  20.109   3.056  0.00  0.00    +0.036 A 
ATOM     20  CD1 TYR A   1     -12.523  19.019   3.723  0.00  0.00    -0.001 A 
BRANCH  18  21
ATOM     21  OH  TYR A   1     -13.977  22.351   3.149  0.00  0.00    -0.506 OA
ATOM     22  HH  TYR A   1     -14.065  22.168   2.180  0.00  0.00    +0.292 HD
ENDBRANCH  18  21
ENDBRANCH  14  15
ENDBRANCH  11  14
ENDBRANCH   7  11
ENDBRANCH   6   8
BRANCH   6  23
ATOM     23  CB  GLU A   2     -11.450  15.459  10.738  0.00  0.00    +0.041 C 
BRANCH  23  24
ATOM     24  CG  GLU A   2     -11.566  15.214  12.218  0.00  0.00    +0.116 C 
BRANCH  24  25
ATOM     25  CD  GLU A   2     -11.231  13.776  12.556  0.00  0.00    +0.365 C 
ATOM     26  OE2 GLU A   2     -10.172  13.532  13.172  0.00  0.00    -0.246 OA
ATOM     27  OE1 GLU A   2     -12.025  12.880  12.194  0.00  0.00    -0.246 OA
ENDBRANCH  24  25
ENDBRANCH  23  24
ENDBRANCH   6  23
ENDBRANCH   2   6
ENDBRANCH   1   3
BRANCH   1  28
ATOM     28  C   GLN A   3     -10.300  19.665  13.265  0.00  0.00    +0.241 C 
ATOM     29  O   GLN A   3     -11.144  19.334  14.086  0.00  0.00    -0.273 OA
ATOM     30  N   GLN A   4      -8.995  19.681  13.525  0.00  0.00    -0.297 N 
ATOM     31  H   GLN A   4      -8.339  19.938  12.760  0.00  0.00    +0.150 HD
BRANCH  30  32
ATOM     32  CA  GLN A   4      -8.445  19.353  14.836  0.00  0.00    +0.149 C 
BRANCH  32  33
ATOM     33  C   GLN A   4      -7.607  20.519  15.341  0.00  0.00    +0.241 C 
ATOM     34  N   ARG A   5      -7.887  20.944  16.577  0.00  0.00    -0.298 N 
ATOM     35  H   ARG A   5      -8.689  20.517  17.083  0.00  0.00    +0.150 HD
ATOM     36  O   GLN A   4      -6.743  21.023  14.618  0.00  0.00    -0.273 OA
BRANCH  34  37
ATOM     37  CA  ARG A   5      -7.108  21.986  17.244  0.00  0.00    +0.137 C 
BRANCH  37  38
ATOM     38  C   ARG A   5      -6.729  21.540  18.647  0.00  0.00    +0.227 C 
ATOM     39  O   ARG A   5      -7.552  20.994  19.371  0.00  0.00    -0.286 OA
ENDBRANCH  37  38
BRANCH  37  40
ATOM     40  CB  ARG A   5      -7.895  23.295  17.327  0.00  0.00    +0.031 C 
BRANCH  40  41
ATOM     41  CG  ARG A   5      -8.610  23.670  16.039  0.00  0.00    +0.045 C 
BRANCH  41  42
ATOM     42  CD  ARG A   5      -9.150  25.090  16.080  0.00  0.00    +0.174 C 
BRANCH  42  43
ATOM     43  NE  ARG A   5      -8.111  26.075  15.787  0.00  0.00    -0.265 N 
ATOM     44  HE  ARG A   5      -7.121  25.764  15.855  0.00  0.00    +0.259 HD
ATOM     45  CZ  ARG A   5      -8.336  27.340  15.440  0.00  0.00    +0.342 C 
ATOM     46  NH2 ARG A   5      -9.576  27.811  15.328  0.00  0.00    -0.292 N 
ATOM     47 HH21 ARG A   5     -10.388  27.188  15.513  0.00  0.00    +0.255 HD
ATOM     48 HH22 ARG A   5      -9.733  28.802  15.056  0.00  0.00    +0.255 HD
ATOM     49  NH1 ARG A   5      -7.307  28.145  15.192  0.00  0.00    -0.292 N 
ATOM     50 HH11 ARG A   5      -6.334  27.785  15.270  0.00  0.00    +0.255 HD
ATOM     51 HH12 ARG A   5      -7.475  29.135  14.920  0.00  0.00    +0.255 HD
ENDBRANCH  42  43
ENDBRANCH  41  42
ENDBRANCH  40  41
ENDBRANCH  37  40
ENDBRANCH  34  37
ENDBRANCH  32  33
BRANCH  32  52
ATOM     52  CB  GLN A   4      -7.568  18.097  14.763  0.00  0.00    +0.039 C 
BRANCH  52  53
ATOM     53  CG  GLN A   4      -8.298  16.818  14.318  0.00  0.00    +0.087 C 
BRANCH  53  54
ATOM     54  CD  GLN A   4      -7.345  15.661  14.025  0.00  0.00    +0.219 C 
ATOM     55  OE1 GLN A   4      -6.121  15.787  14.150  0.00  0.00    -0.275 OA
ATOM     56  NE2 GLN A   4      -7.903  14.531  13.635  0.00  0.00    -0.329 N 
ATOM     57 HE21 GLN A   4      -8.937  14.466  13.542  0.00  0.00    +0.145 HD
ATOM     58 HE22 GLN A   4      -7.309  13.705  13.420  0.00  0.00    +0.145 HD
ENDBRANCH  53  54
ENDBRANCH  52  53
ENDBRANCH  32  52
ENDBRANCH  30  32
ENDBRANCH   1  28
BRANCH   1  59
ATOM     59  CB  GLN A   3     -11.435  21.430  11.861  0.00  0.00    +0.039 C 
BRANCH  59  60
ATOM     60  CG  GLN A   3     -10.575  22.558  12.455  0.00  0.00    +0.087 C 
BRANCH  60  61
ATOM     61  CD  GLN A   3     -11.130  23.962  12.216  0.00  0.00    +0.219 C 
ATOM     62  NE2 GLN A   3     -10.543  24.945  12.894  0.00  0.00    -0.329 N 
ATOM     63 HE21 GLN A   3      -9.759  24.733  13.544  0.00  0.00    +0.145 HD
ATOM     64 HE22 GLN A   3     -10.868  25.926  12.774  0.00  0.00    +0.145 HD
ATOM     65  OE1 GLN A   3     -12.062  24.162  11.434  0.00  0.00    -0.275 OA
ENDBRANCH  60  61
ENDBRANCH  59  60
ENDBRANCH   1  59
TORSDOF 26
REMARK  Name = ../refined-set-2016/2bys/2bys_pocket.pdb
REMARK  221 active torsions:
REMARK  status: ('A' for Active; 'I' for Inactive)
REMARK    1  A    between atoms: _1  and  _3
REMARK    2  A    between atoms: _3  and  _4
REMARK    3  A    between atoms: _3  and  _6
REMARK    4  A    between atoms: _6  and  _7
REMARK    5  A    between atoms: _10  and  _12
REMARK    6  A    between atoms: _12  and  _13
REMARK    7  A    between atoms: _12  and  _15
REMARK    8  A    between atoms: _15  and  _16
REMARK    9  A    between atoms: _19  and  _21
REMARK   10  A    between atoms: _21  and  _22
REMARK   11  A    between atoms: _21  and  _24
REMARK   12  A    between atoms: _24  and  _25
REMARK   13  A    between atoms: _28  and  _30
REMARK   14  A    between atoms: _30  and  _31
REMARK   15  A    between atoms: _34  and  _36
REMARK   16  A    between atoms: _36  and  _37
REMARK   17  A    between atoms: _36  and  _39
REMARK   18  A    between atoms: _39  and  _40
REMARK   19  A    between atoms: _45  and  _46
REMARK   20  A    between atoms: _48  and  _50
REMARK   21  A    between atoms: _50  and  _51
REMARK   22  A    between atoms: _50  and  _53
REMARK   23  A    between atoms: _53  and  _54
REMARK   24  A    between atoms: _56  and  _58
REMARK   25  A    between atoms: _58  and  _59
REMARK   26  A    between atoms: _58  and  _61
REMARK   27  A    between atoms: _61  and  _62
REMARK   28  A    between atoms: _64  and  _66
REMARK   29  A    between atoms: _66  and  _67
REMARK   30  A    between atoms: _66  and  _69
REMARK   31  A    between atoms: _72  and  _74
REMARK   32  A    between atoms: _74  and  _75
REMARK   33  A    between atoms: _74  and  _77
REMARK   34  A    between atoms: _77  and  _78
REMARK   35  A    between atoms: _78  and  _79
REMARK   36  A    between atoms: _79  and  _80
REMARK   37  A    between atoms: _80  and  _81
REMARK   38  A    between atoms: _85  and  _87
REMARK   39  A    between atoms: _87  and  _88
REMARK   40  A    between atoms: _87  and  _90
REMARK   41  A    between atoms: _90  and  _91
REMARK   42  A    between atoms: _97  and  _99
REMARK   43  A    between atoms: _99  and  _100
REMARK   44  A    between atoms: _102  and  _104
REMARK   45  A    between atoms: _104  and  _105
REMARK   46  A    between atoms: _104  and  _107
REMARK   47  A    between atoms: _107  and  _108
REMARK   48  A    between atoms: _110  and  _112
REMARK   49  A    between atoms: _112  and  _113
REMARK   50  A    between atoms: _112  and  _115
REMARK   51  A    between atoms: _115  and  _116
REMARK   52  A    between atoms: _126  and  _128
REMARK   53  A    between atoms: _128  and  _129
REMARK   54  A    between atoms: _128  and  _131
REMARK   55  A    between atoms: _134  and  _136
REMARK   56  A    between atoms: _136  and  _137
REMARK   57  A    between atoms: _136  and  _139
REMARK   58  A    between atoms: _139  and  _140
REMARK   59  A    between atoms: _145  and  _146
REMARK   60  A    between atoms: _148  and  _150
REMARK   61  A    between atoms: _150  and  _151
REMARK   62  A    between atoms: _150  and  _153
REMARK   63  A    between atoms: _153  and  _154
REMARK   64  A    between atoms: _156  and  _158
REMARK   65  A    between atoms: _158  and  _159
REMARK   66  A    between atoms: _158  and  _161
REMARK   67  A    between atoms: _161  and  _162
REMARK   68  A    between atoms: _162  and  _163
REMARK   69  A    between atoms: _166  and  _168
REMARK   70  A    between atoms: _168  and  _169
REMARK   71  A    between atoms: _168  and  _171
REMARK   72  A    between atoms: _171  and  _172
REMARK   73  A    between atoms: _175  and  _177
REMARK   74  A    between atoms: _177  and  _178
REMARK   75  A    between atoms: _177  and  _180
REMARK   76  A    between atoms: _180  and  _181
REMARK   77  A    between atoms: _181  and  _182
REMARK   78  A    between atoms: _187  and  _189
REMARK   79  A    between atoms: _189  and  _190
REMARK   80  A    between atoms: _189  and  _192
REMARK   81  A    between atoms: _192  and  _193
REMARK   82  A    between atoms: _193  and  _194
REMARK   83  A    between atoms: _199  and  _201
REMARK   84  A    between atoms: _201  and  _202
REMARK   85  A    between atoms: _201  and  _204
REMARK   86  A    between atoms: _204  and  _205
REMARK   87  A    between atoms: _210  and  _212
REMARK   88  A    between atoms: _212  and  _213
REMARK   89  A    between atoms: _212  and  _215
REMARK   90  A    between atoms: _215  and  _216
REMARK   91  A    between atoms: _221  and  _222
REMARK   92  A    between atoms: _224  and  _226
REMARK   93  A    between atoms: _226  and  _227
REMARK   94  A    between atoms: _226  and  _229
REMARK   95  A    between atoms: _229  and  _230
REMARK   96  A    between atoms: _232  and  _234
REMARK   97  A    between atoms: _241  and  _242
REMARK   98  A    between atoms: _247  and  _248
REMARK   99  A    between atoms: _253  and  _255
REMARK  100  A    between atoms: _255  and  _256
REMARK  101  A    between atoms: _255  and  _258
REMARK  102  A    between atoms: _258  and  _259
REMARK  103  A    between atoms: _259  and  _260
REMARK  104  A    between atoms: _264  and  _265
REMARK  105  A    between atoms: _270  and  _272
REMARK  106  A    between atoms: _272  and  _273
REMARK  107  A    between atoms: _272  and  _275
REMARK  108  A    between atoms: _275  and  _276
REMARK  109  A    between atoms: _281  and  _282
REMARK  110  A    between atoms: _284  and  _286
REMARK  111  A    between atoms: _286  and  _287
REMARK  112  A    between atoms: _286  and  _289
REMARK  113  A    between atoms: _289  and  _290
REMARK  114  A    between atoms: _293  and  _295
REMARK  115  A    between atoms: _295  and  _296
REMARK  116  A    between atoms: _295  and  _298
REMARK  117  A    between atoms: _298  and  _299
REMARK  118  A    between atoms: _302  and  _304
REMARK  119  A    between atoms: _304  and  _305
REMARK  120  A    between atoms: _304  and  _307
REMARK  121  A    between atoms: _310  and  _312
REMARK  122  A    between atoms: _312  and  _313
REMARK  123  A    between atoms: _312  and  _315
REMARK  124  A    between atoms: _315  and  _316
REMARK  125  A    between atoms: _321  and  _323
REMARK  126  A    between atoms: _323  and  _324
REMARK  127  A    between atoms: _323  and  _326
REMARK  128  A    between atoms: _326  and  _327
REMARK  129  A    between atoms: _330  and  _332
REMARK  130  A    between atoms: _332  and  _333
REMARK  131  A    between atoms: _332  and  _335
REMARK  132  A    between atoms: _335  and  _336
REMARK  133  A    between atoms: _336  and  _337
REMARK  134  A    between atoms: _342  and  _344
REMARK  135  A    between atoms: _344  and  _345
REMARK  136  A    between atoms: _344  and  _347
REMARK  137  A    between atoms: _347  and  _348
REMARK  138  A    between atoms: _353  and  _354
REMARK  139  A    between atoms: _356  and  _358
REMARK  140  A    between atoms: _358  and  _359
REMARK  141  A    between atoms: _358  and  _361
REMARK  142  A    between atoms: _361  and  _362
REMARK  143  A    between atoms: _362  and  _363
REMARK  144  A    between atoms: _366  and  _368
REMARK  145  A    between atoms: _368  and  _369
REMARK  146  A    between atoms: _368  and  _371
REMARK  147  A    between atoms: _371  and  _372
REMARK  148  A    between atoms: _372  and  _373
REMARK  149  A    between atoms: _378  and  _380
REMARK  150  A    between atoms: _380  and  _381
REMARK  151  A    between atoms: _380  and  _383
REMARK  152  A    between atoms: _383  and  _384
REMARK  153  A    between atoms: _384  and  _385
REMARK  154  A    between atoms: _390  and  _392
REMARK  155  A    between atoms: _392  and  _393
REMARK  156  A    between atoms: _392  and  _395
REMARK  157  A    between atoms: _395  and  _396
REMARK  158  A    between atoms: _396  and  _397
REMARK  159  A    between atoms: _397  and  _398
REMARK  160  A    between atoms: _407  and  _409
REMARK  161  A    between atoms: _409  and  _410
REMARK  162  A    between atoms: _409  and  _412
REMARK  163  A    between atoms: _412  and  _413
REMARK  164  A    between atoms: _416  and  _418
REMARK  165  A    between atoms: _418  and  _419
REMARK  166  A    between atoms: _418  and  _421
REMARK  167  A    between atoms: _421  and  _422
REMARK  168  A    between atoms: _428  and  _430
REMARK  169  A    between atoms: _430  and  _431
REMARK  170  A    between atoms: _430  and  _433
REMARK  171  A    between atoms: _433  and  _434
REMARK  172  A    between atoms: _434  and  _435
REMARK  173  A    between atoms: _435  and  _436
REMARK  174  A    between atoms: _445  and  _447
REMARK  175  A    between atoms: _447  and  _448
REMARK  176  A    between atoms: _447  and  _450
REMARK  177  A    between atoms: _450  and  _451
REMARK  178  A    between atoms: _454  and  _456
REMARK  179  A    between atoms: _456  and  _457
REMARK  180  A    between atoms: _456  and  _459
REMARK  181  A    between atoms: _459  and  _460
REMARK  182  A    between atoms: _463  and  _464
REMARK  183  A    between atoms: _469  and  _471
REMARK  184  A    between atoms: _471  and  _472
REMARK  185  A    between atoms: _471  and  _474
REMARK  186  A    between atoms: _474  and  _475
REMARK  187  A    between atoms: _478  and  _480
REMARK  188  A    between atoms: _480  and  _481
REMARK  189  A    between atoms: _484  and  _486
REMARK  190  A    between atoms: _486  and  _487
REMARK  191  A    between atoms: _486  and  _489
REMARK  192  A    between atoms: _492  and  _494
REMARK  193  A    between atoms: _494  and  _495
REMARK  194  A    between atoms: _494  and  _497
REMARK  195  A    between atoms: _500  and  _502
REMARK  196  A    between atoms: _502  and  _503
REMARK  197  A    between atoms: _502  and  _505
REMARK  198  A    between atoms: _505  and  _506
REMARK  199  A    between atoms: _509  and  _511
REMARK  200  A    between atoms: _511  and  _512
REMARK  201  A    between atoms: _511  and  _514
REMARK  202  A    between atoms: _517  and  _519
REMARK  203  A    between atoms: _519  and  _520
REMARK  204  A    between atoms: _519  and  _522
REMARK  205  A    between atoms: _522  and  _523
REMARK  206  A    between atoms: _523  and  _524
REMARK  207  A    between atoms: _526  and  _528
REMARK  208  A    between atoms: _528  and  _529
REMARK  209  A    between atoms: _528  and  _531
REMARK  210  A    between atoms: _531  and  _532
REMARK  211  A    between atoms: _538  and  _540
REMARK  212  A    between atoms: _540  and  _541
REMARK  213  A    between atoms: _540  and  _543
REMARK  214  A    between atoms: _543  and  _544
REMARK  215  A    between atoms: _548  and  _549
REMARK  216  A    between atoms: _554  and  _556
REMARK  217  A    between atoms: _556  and  _557
REMARK  218  A    between atoms: _560  and  _562
REMARK  219  A    between atoms: _562  and  _563
REMARK  220  A    between atoms: _562  and  _565
REMARK  221  A    between atoms: _565  and  _566
REMARK                            x       y       z     vdW  Elec       q    Type
REMARK                         _______ _______ _______ _____ _____    ______ ____
ROOT
ATOM      1  CA  ARG A   3       3.478  25.053   8.273  0.00  0.00    +0.149 C 
ENDROOT
BRANCH   1   4
ATOM      2  C   PHE A   2       3.819  26.740  10.019  0.00  0.00    +0.241 C 
ATOM      3  O   PHE A   2       3.090  26.167  10.824  0.00  0.00    -0.273 OA
ATOM      4  N   ARG A   3       4.000  26.327   8.768  0.00  0.00    -0.297 N 
ATOM      5  H   ARG A   3       4.535  26.935   8.115  0.00  0.00    +0.150 HD
BRANCH   2   6
ATOM      6  CA  PHE A   2       4.567  28.013  10.405  0.00  0.00    +0.153 C 
BRANCH   6   8
ATOM      7  C   ASP A   1       4.113  30.023  11.715  0.00  0.00    +0.239 C 
ATOM      8  N   PHE A   2       3.928  28.722  11.513  0.00  0.00    -0.297 N 
ATOM      9  H   PHE A   2       3.311  28.193  12.162  0.00  0.00    +0.150 HD
ATOM     10  O   ASP A   1       4.979  30.677  11.137  0.00  0.00    -0.274 OA
BRANCH   7  11
ATOM     11  CA  ASP A   1       3.208  30.679  12.760  0.00  0.00    +0.156 C 
BRANCH  11  12
ATOM     12  N   ASP A   1       3.596  32.065  13.000  0.00  0.00    -0.238 NA
ATOM     13  H   ASP A   1       4.167  32.560  12.286  0.00  0.00    +0.142 HD
ENDBRANCH  11  12
BRANCH  11  14
ATOM     14  CB  ASP A   1       1.725  30.579  12.347  0.00  0.00    +0.140 C 
BRANCH  14  15
ATOM     15  CG  ASP A   1       1.352  31.539  11.223  0.00  0.00    +0.367 C 
ATOM     16  OD2 ASP A   1       2.169  32.410  10.874  0.00  0.00    -0.246 OA
ATOM     17  OD1 ASP A   1       0.227  31.424  10.691  0.00  0.00    -0.246 OA
ENDBRANCH  14  15
ENDBRANCH  11  14
ENDBRANCH   7  11
ENDBRANCH   6   8
BRANCH   6  18
ATOM     18  CB  PHE A   2       6.043  27.713  10.691  0.00  0.00    +0.055 C 
BRANCH  18  19
ATOM     19  CG  PHE A   2       6.288  26.807  11.869  0.00  0.00    -0.020 A 
ATOM     20  CD2 PHE A   2       6.595  27.338  13.118  0.00  0.00    -0.004 A 
ATOM     21  CE2 PHE A   2       6.858  26.507  14.207  0.00  0.00    -0.000 A 
ATOM     22  CZ  PHE A   2       6.821  25.127  14.048  0.00  0.00    -0.000 A 
ATOM     23  CE1 PHE A   2       6.521  24.582  12.801  0.00  0.00    -0.000 A 
ATOM     24  CD1 PHE A   2       6.270  25.423  11.718  0.00  0.00    -0.004 A 
ENDBRANCH  18  19
ENDBRANCH   6  18
ENDBRANCH   2   6
ENDBRANCH   1   4
BRANCH   1  25
ATOM     25  C   ARG A   3       4.503  23.974   8.594  0.00  0.00    +0.241 C 
ATOM     26  N   THR A   4       4.033  22.789   8.974  0.00  0.00    -0.296 N 
ATOM     27  H   THR A   4       3.009  22.662   9.104  0.00  0.00    +0.150 HD
ATOM     28  O   ARG A   3       5.707  24.216   8.496  0.00  0.00    -0.273 OA
BRANCH  26  29
ATOM     29  CA  THR A   4       4.933  21.662   9.212  0.00  0.00    +0.164 C 
BRANCH  29  30
ATOM     30  C   THR A   4       4.252  20.336   8.926  0.00  0.00    +0.229 C 
ATOM     31  O   THR A   4       3.064  20.178   9.166  0.00  0.00    -0.286 OA
ENDBRANCH  29  30
BRANCH  29  32
ATOM     32  CB  THR A   4       5.488  21.650  10.661  0.00  0.00    +0.136 C 
ATOM     33  CG2 THR A   4       4.465  21.150  11.672  0.00  0.00    +0.034 C 
BRANCH  32  34
ATOM     34  OG1 THR A   4       6.654  20.819  10.733  0.00  0.00    -0.382 OA
ATOM     35  HG1 THR A   4       7.000  20.818  11.660  0.00  0.00    +0.210 HD
ENDBRANCH  32  34
ENDBRANCH  29  32
ENDBRANCH  26  29
ENDBRANCH   1  25
BRANCH   1  36
ATOM     36  CB  ARG A   3       3.249  25.100   6.757  0.00  0.00    +0.033 C 
BRANCH  36  37
ATOM     37  CG  ARG A   3       1.879  25.570   6.330  0.00  0.00    +0.045 C 
BRANCH  37  38
ATOM     38  CD  ARG A   3       1.656  27.053   6.583  0.00  0.00    +0.174 C 
BRANCH  38  39
ATOM     39  NE  ARG A   3       0.261  27.406   6.312  0.00  0.00    -0.265 N 
ATOM     40  CZ  ARG A   3      -0.390  28.429   6.863  0.00  0.00    +0.342 C 
ATOM     41  NH2 ARG A   3       0.215  29.233   7.729  0.00  0.00    -0.292 N 
ATOM     42 HH21 ARG A   3      -0.305  30.028   8.152  0.00  0.00    +0.255 HD
ATOM     43 HH22 ARG A   3       1.209  29.068   7.985  0.00  0.00    +0.255 HD
ATOM     44  NH1 ARG A   3      -1.660  28.651   6.552  0.00  0.00    -0.292 N 
ATOM     45 HH11 ARG A   3      -2.169  29.450   6.982  0.00  0.00    +0.255 HD
ATOM     46 HH12 ARG A   3      -2.147  28.026   5.878  0.00  0.00    +0.255 HD
ATOM     47  HE  ARG A   3      -0.262  26.812   5.637  0.00  0.00    +0.259 HD
ENDBRANCH  38  39
ENDBRANCH  37  38
ENDBRANCH  36  37
ENDBRANCH   1  36
TORSDOF 18
REMARK  Name = ../refined-set-2016/2bys/2bys_pocket.pdb
REMARK  221 active torsions:
REMARK  status: ('A' for Active; 'I' for Inactive)
REMARK    1  A    between atoms: _1  and  _3
REMARK    2  A    between atoms: _3  and  _4
REMARK    3  A    between atoms: _3  and  _6
REMARK    4  A    between atoms: _6  and  _7
REMARK    5  A    between atoms: _10  and  _12
REMARK    6  A    between atoms: _12  and  _13
REMARK    7  A    between atoms: _12  and  _15
REMARK    8  A    between atoms: _15  and  _16
REMARK    9  A    between atoms: _19  and  _21
REMARK   10  A    between atoms: _21  and  _22
REMARK   11  A    between atoms: _21  and  _24
REMARK   12  A    between atoms: _24  and  _25
REMARK   13  A    between atoms: _28  and  _30
REMARK   14  A    between atoms: _30  and  _31
REMARK   15  A    between atoms: _34  and  _36
REMARK   16  A    between atoms: _36  and  _37
REMARK   17  A    between atoms: _36  and  _39
REMARK   18  A    between atoms: _39  and  _40
REMARK   19  A    between atoms: _45  and  _46
REMARK   20  A    between atoms: _48  and  _50
REMARK   21  A    between atoms: _50  and  _51
REMARK   22  A    between atoms: _50  and  _53
REMARK   23  A    between atoms: _53  and  _54
REMARK   24  A    between atoms: _56  and  _58
REMARK   25  A    between atoms: _58  and  _59
REMARK   26  A    between atoms: _58  and  _61
REMARK   27  A    between atoms: _61  and  _62
REMARK   28  A    between atoms: _64  and  _66
REMARK   29  A    between atoms: _66  and  _67
REMARK   30  A    between atoms: _66  and  _69
REMARK   31  A    between atoms: _72  and  _74
REMARK   32  A    between atoms: _74  and  _75
REMARK   33  A    between atoms: _74  and  _77
REMARK   34  A    between atoms: _77  and  _78
REMARK   35  A    between atoms: _78  and  _79
REMARK   36  A    between atoms: _79  and  _80
REMARK   37  A    between atoms: _80  and  _81
REMARK   38  A    between atoms: _85  and  _87
REMARK   39  A    between atoms: _87  and  _88
REMARK   40  A    between atoms: _87  and  _90
REMARK   41  A    between atoms: _90  and  _91
REMARK   42  A    between atoms: _97  and  _99
REMARK   43  A    between atoms: _99  and  _100
REMARK   44  A    between atoms: _102  and  _104
REMARK   45  A    between atoms: _104  and  _105
REMARK   46  A    between atoms: _104  and  _107
REMARK   47  A    between atoms: _107  and  _108
REMARK   48  A    between atoms: _110  and  _112
REMARK   49  A    between atoms: _112  and  _113
REMARK   50  A    between atoms: _112  and  _115
REMARK   51  A    between atoms: _115  and  _116
REMARK   52  A    between atoms: _126  and  _128
REMARK   53  A    between atoms: _128  and  _129
REMARK   54  A    between atoms: _128  and  _131
REMARK   55  A    between atoms: _134  and  _136
REMARK   56  A    between atoms: _136  and  _137
REMARK   57  A    between atoms: _136  and  _139
REMARK   58  A    between atoms: _139  and  _140
REMARK   59  A    between atoms: _145  and  _146
REMARK   60  A    between atoms: _148  and  _150
REMARK   61  A    between atoms: _150  and  _151
REMARK   62  A    between atoms: _150  and  _153
REMARK   63  A    between atoms: _153  and  _154
REMARK   64  A    between atoms: _156  and  _158
REMARK   65  A    between atoms: _158  and  _159
REMARK   66  A    between atoms: _158  and  _161
REMARK   67  A    between atoms: _161  and  _162
REMARK   68  A    between atoms: _162  and  _163
REMARK   69  A    between atoms: _166  and  _168
REMARK   70  A    between atoms: _168  and  _169
REMARK   71  A    between atoms: _168  and  _171
REMARK   72  A    between atoms: _171  and  _172
REMARK   73  A    between atoms: _175  and  _177
REMARK   74  A    between atoms: _177  and  _178
REMARK   75  A    between atoms: _177  and  _180
REMARK   76  A    between atoms: _180  and  _181
REMARK   77  A    between atoms: _181  and  _182
REMARK   78  A    between atoms: _187  and  _189
REMARK   79  A    between atoms: _189  and  _190
REMARK   80  A    between atoms: _189  and  _192
REMARK   81  A    between atoms: _192  and  _193
REMARK   82  A    between atoms: _193  and  _194
REMARK   83  A    between atoms: _199  and  _201
REMARK   84  A    between atoms: _201  and  _202
REMARK   85  A    between atoms: _201  and  _204
REMARK   86  A    between atoms: _204  and  _205
REMARK   87  A    between atoms: _210  and  _212
REMARK   88  A    between atoms: _212  and  _213
REMARK   89  A    between atoms: _212  and  _215
REMARK   90  A    between atoms: _215  and  _216
REMARK   91  A    between atoms: _221  and  _222
REMARK   92  A    between atoms: _224  and  _226
REMARK   93  A    between atoms: _226  and  _227
REMARK   94  A    between atoms: _226  and  _229
REMARK   95  A    between atoms: _229  and  _230
REMARK   96  A    between atoms: _232  and  _234
REMARK   97  A    between atoms: _241  and  _242
REMARK   98  A    between atoms: _247  and  _248
REMARK   99  A    between atoms: _253  and  _255
REMARK  100  A    between atoms: _255  and  _256
REMARK  101  A    between atoms: _255  and  _258
REMARK  102  A    between atoms: _258  and  _259
REMARK  103  A    between atoms: _259  and  _260
REMARK  104  A    between atoms: _264  and  _265
REMARK  105  A    between atoms: _270  and  _272
REMARK  106  A    between atoms: _272  and  _273
REMARK  107  A    between atoms: _272  and  _275
REMARK  108  A    between atoms: _275  and  _276
REMARK  109  A    between atoms: _281  and  _282
REMARK  110  A    between atoms: _284  and  _286
REMARK  111  A    between atoms: _286  and  _287
REMARK  112  A    between atoms: _286  and  _289
REMARK  113  A    between atoms: _289  and  _290
REMARK  114  A    between atoms: _293  and  _295
REMARK  115  A    between atoms: _295  and  _296
REMARK  116  A    between atoms: _295  and  _298
REMARK  117  A    between atoms: _298  and  _299
REMARK  118  A    between atoms: _302  and  _304
REMARK  119  A    between atoms: _304  and  _305
REMARK  120  A    between atoms: _304  and  _307
REMARK  121  A    between atoms: _310  and  _312
REMARK  122  A    between atoms: _312  and  _313
REMARK  123  A    between atoms: _312  and  _315
REMARK  124  A    between atoms: _315  and  _316
REMARK  125  A    between atoms: _321  and  _323
REMARK  126  A    between atoms: _323  and  _324
REMARK  127  A    between atoms: _323  and  _326
REMARK  128  A    between atoms: _326  and  _327
REMARK  129  A    between atoms: _330  and  _332
REMARK  130  A    between atoms: _332  and  _333
REMARK  131  A    between atoms: _332  and  _335
REMARK  132  A    between atoms: _335  and  _336
REMARK  133  A    between atoms: _336  and  _337
REMARK  134  A    between atoms: _342  and  _344
REMARK  135  A    between atoms: _344  and  _345
REMARK  136  A    between atoms: _344  and  _347
REMARK  137  A    between atoms: _347  and  _348
REMARK  138  A    between atoms: _353  and  _354
REMARK  139  A    between atoms: _356  and  _358
REMARK  140  A    between atoms: _358  and  _359
REMARK  141  A    between atoms: _358  and  _361
REMARK  142  A    between atoms: _361  and  _362
REMARK  143  A    between atoms: _362  and  _363
REMARK  144  A    between atoms: _366  and  _368
REMARK  145  A    between atoms: _368  and  _369
REMARK  146  A    between atoms: _368  and  _371
REMARK  147  A    between atoms: _371  and  _372
REMARK  148  A    between atoms: _372  and  _373
REMARK  149  A    between atoms: _378  and  _380
REMARK  150  A    between atoms: _380  and  _381
REMARK  151  A    between atoms: _380  and  _383
REMARK  152  A    between atoms: _383  and  _384
REMARK  153  A    between atoms: _384  and  _385
REMARK  154  A    between atoms: _390  and  _392
REMARK  155  A    between atoms: _392  and  _393
REMARK  156  A    between atoms: _392  and  _395
REMARK  157  A    between atoms: _395  and  _396
REMARK  158  A    between atoms: _396  and  _397
REMARK  159  A    between atoms: _397  and  _398
REMARK  160  A    between atoms: _407  and  _409
REMARK  161  A    between atoms: _409  and  _410
REMARK  162  A    between atoms: _409  and  _412
REMARK  163  A    between atoms: _412  and  _413
REMARK  164  A    between atoms: _416  and  _418
REMARK  165  A    between atoms: _418  and  _419
REMARK  166  A    between atoms: _418  and  _421
REMARK  167  A    between atoms: _421  and  _422
REMARK  168  A    between atoms: _428  and  _430
REMARK  169  A    between atoms: _430  and  _431
REMARK  170  A    between atoms: _430  and  _433
REMARK  171  A    between atoms: _433  and  _434
REMARK  172  A    between atoms: _434  and  _435
REMARK  173  A    between atoms: _435  and  _436
REMARK  174  A    between atoms: _445  and  _447
REMARK  175  A    between atoms: _447  and  _448
REMARK  176  A    between atoms: _447  and  _450
REMARK  177  A    between atoms: _450  and  _451
REMARK  178  A    between atoms: _454  and  _456
REMARK  179  A    between atoms: _456  and  _457
REMARK  180  A    between atoms: _456  and  _459
REMARK  181  A    between atoms: _459  and  _460
REMARK  182  A    between atoms: _463  and  _464
REMARK  183  A    between atoms: _469  and  _471
REMARK  184  A    between atoms: _471  and  _472
REMARK  185  A    between atoms: _471  and  _474
REMARK  186  A    between atoms: _474  and  _475
REMARK  187  A    between atoms: _478  and  _480
REMARK  188  A    between atoms: _480  and  _481
REMARK  189  A    between atoms: _484  and  _486
REMARK  190  A    between atoms: _486  and  _487
REMARK  191  A    between atoms: _486  and  _489
REMARK  192  A    between atoms: _492  and  _494
REMARK  193  A    between atoms: _494  and  _495
REMARK  194  A    between atoms: _494  and  _497
REMARK  195  A    between atoms: _500  and  _502
REMARK  196  A    between atoms: _502  and  _503
REMARK  197  A    between atoms: _502  and  _505
REMARK  198  A    between atoms: _505  and  _506
REMARK  199  A    between atoms: _509  and  _511
REMARK  200  A    between atoms: _511  and  _512
REMARK  201  A    between atoms: _511  and  _514
REMARK  202  A    between atoms: _517  and  _519
REMARK  203  A    between atoms: _519  and  _520
REMARK  204  A    between atoms: _519  and  _522
REMARK  205  A    between atoms: _522  and  _523
REMARK  206  A    between atoms: _523  and  _524
REMARK  207  A    between atoms: _526  and  _528
REMARK  208  A    between atoms: _528  and  _529
REMARK  209  A    between atoms: _528  and  _531
REMARK  210  A    between atoms: _531  and  _532
REMARK  211  A    between atoms: _538  and  _540
REMARK  212  A    between atoms: _540  and  _541
REMARK  213  A    between atoms: _540  and  _543
REMARK  214  A    between atoms: _543  and  _544
REMARK  215  A    between atoms: _548  and  _549
REMARK  216  A    between atoms: _554  and  _556
REMARK  217  A    between atoms: _556  and  _557
REMARK  218  A    between atoms: _560  and  _562
REMARK  219  A    between atoms: _562  and  _563
REMARK  220  A    between atoms: _562  and  _565
REMARK  221  A    between atoms: _565  and  _566
REMARK                            x       y       z     vdW  Elec       q    Type
REMARK                         _______ _______ _______ _____ _____    ______ ____
ROOT
ATOM      1  C   SER A   1      -3.814  15.548   2.145  0.00  0.00    +0.244 C 
ATOM      2  O   SER A   1      -3.542  14.580   2.858  0.00  0.00    -0.273 OA
ATOM      3  N   PRO A   2      -2.923  16.522   1.826  0.00  0.00    -0.273 N 
ATOM      4  CA  PRO A   2      -1.605  16.585   2.429  0.00  0.00    +0.140 C 
ATOM      5  CB  PRO A   2      -1.053  17.936   1.947  0.00  0.00    +0.030 C 
ATOM      6  CG  PRO A   2      -1.742  18.203   0.698  0.00  0.00    +0.024 C 
ATOM      7  CD  PRO A   2      -3.107  17.598   0.834  0.00  0.00    +0.094 C 
ENDROOT
BRANCH   4   8
ATOM      8  C   PRO A   2      -1.684  16.552   3.953  0.00  0.00    +0.227 C 
ATOM      9  O   PRO A   2      -2.645  17.061   4.549  0.00  0.00    -0.286 OA
ENDBRANCH   4   8
BRANCH   1  10
ATOM     10  CA  SER A   1      -5.205  15.683   1.587  0.00  0.00    +0.175 C 
BRANCH  10  11
ATOM     11  N   SER A   1      -5.919  14.397   1.589  0.00  0.00    -0.236 NA
ATOM     12  H   SER A   1      -5.883  13.795   2.436  0.00  0.00    +0.142 HD
ENDBRANCH  10  11
BRANCH  10  13
ATOM     13  CB  SER A   1      -5.955  16.718   2.432  0.00  0.00    +0.163 C 
BRANCH  13  14
ATOM     14  OG  SER A   1      -5.821  16.454   3.816  0.00  0.00    -0.380 OA
ATOM     15  H   SER A   1      -4.863  16.481   4.065  0.00  0.00    +0.211 HD
ENDBRANCH  13  14
ENDBRANCH  10  13
ENDBRANCH   1  10
TORSDOF 5
REMARK  Name = ../refined-set-2016/2bys/2bys_pocket.pdb
REMARK  221 active torsions:
REMARK  status: ('A' for Active; 'I' for Inactive)
REMARK    1  A    between atoms: _1  and  _3
REMARK    2  A    between atoms: _3  and  _4
REMARK    3  A    between atoms: _3  and  _6
REMARK    4  A    between atoms: _6  and  _7
REMARK    5  A    between atoms: _10  and  _12
REMARK    6  A    between atoms: _12  and  _13
REMARK    7  A    between atoms: _12  and  _15
REMARK    8  A    between atoms: _15  and  _16
REMARK    9  A    between atoms: _19  and  _21
REMARK   10  A    between atoms: _21  and  _22
REMARK   11  A    between atoms: _21  and  _24
REMARK   12  A    between atoms: _24  and  _25
REMARK   13  A    between atoms: _28  and  _30
REMARK   14  A    between atoms: _30  and  _31
REMARK   15  A    between atoms: _34  and  _36
REMARK   16  A    between atoms: _36  and  _37
REMARK   17  A    between atoms: _36  and  _39
REMARK   18  A    between atoms: _39  and  _40
REMARK   19  A    between atoms: _45  and  _46
REMARK   20  A    between atoms: _48  and  _50
REMARK   21  A    between atoms: _50  and  _51
REMARK   22  A    between atoms: _50  and  _53
REMARK   23  A    between atoms: _53  and  _54
REMARK   24  A    between atoms: _56  and  _58
REMARK   25  A    between atoms: _58  and  _59
REMARK   26  A    between atoms: _58  and  _61
REMARK   27  A    between atoms: _61  and  _62
REMARK   28  A    between atoms: _64  and  _66
REMARK   29  A    between atoms: _66  and  _67
REMARK   30  A    between atoms: _66  and  _69
REMARK   31  A    between atoms: _72  and  _74
REMARK   32  A    between atoms: _74  and  _75
REMARK   33  A    between atoms: _74  and  _77
REMARK   34  A    between atoms: _77  and  _78
REMARK   35  A    between atoms: _78  and  _79
REMARK   36  A    between atoms: _79  and  _80
REMARK   37  A    between atoms: _80  and  _81
REMARK   38  A    between atoms: _85  and  _87
REMARK   39  A    between atoms: _87  and  _88
REMARK   40  A    between atoms: _87  and  _90
REMARK   41  A    between atoms: _90  and  _91
REMARK   42  A    between atoms: _97  and  _99
REMARK   43  A    between atoms: _99  and  _100
REMARK   44  A    between atoms: _102  and  _104
REMARK   45  A    between atoms: _104  and  _105
REMARK   46  A    between atoms: _104  and  _107
REMARK   47  A    between atoms: _107  and  _108
REMARK   48  A    between atoms: _110  and  _112
REMARK   49  A    between atoms: _112  and  _113
REMARK   50  A    between atoms: _112  and  _115
REMARK   51  A    between atoms: _115  and  _116
REMARK   52  A    between atoms: _126  and  _128
REMARK   53  A    between atoms: _128  and  _129
REMARK   54  A    between atoms: _128  and  _131
REMARK   55  A    between atoms: _134  and  _136
REMARK   56  A    between atoms: _136  and  _137
REMARK   57  A    between atoms: _136  and  _139
REMARK   58  A    between atoms: _139  and  _140
REMARK   59  A    between atoms: _145  and  _146
REMARK   60  A    between atoms: _148  and  _150
REMARK   61  A    between atoms: _150  and  _151
REMARK   62  A    between atoms: _150  and  _153
REMARK   63  A    between atoms: _153  and  _154
REMARK   64  A    between atoms: _156  and  _158
REMARK   65  A    between atoms: _158  and  _159
REMARK   66  A    between atoms: _158  and  _161
REMARK   67  A    between atoms: _161  and  _162
REMARK   68  A    between atoms: _162  and  _163
REMARK   69  A    between atoms: _166  and  _168
REMARK   70  A    between atoms: _168  and  _169
REMARK   71  A    between atoms: _168  and  _171
REMARK   72  A    between atoms: _171  and  _172
REMARK   73  A    between atoms: _175  and  _177
REMARK   74  A    between atoms: _177  and  _178
REMARK   75  A    between atoms: _177  and  _180
REMARK   76  A    between atoms: _180  and  _181
REMARK   77  A    between atoms: _181  and  _182
REMARK   78  A    between atoms: _187  and  _189
REMARK   79  A    between atoms: _189  and  _190
REMARK   80  A    between atoms: _189  and  _192
REMARK   81  A    between atoms: _192  and  _193
REMARK   82  A    between atoms: _193  and  _194
REMARK   83  A    between atoms: _199  and  _201
REMARK   84  A    between atoms: _201  and  _202
REMARK   85  A    between atoms: _201  and  _204
REMARK   86  A    between atoms: _204  and  _205
REMARK   87  A    between atoms: _210  and  _212
REMARK   88  A    between atoms: _212  and  _213
REMARK   89  A    between atoms: _212  and  _215
REMARK   90  A    between atoms: _215  and  _216
REMARK   91  A    between atoms: _221  and  _222
REMARK   92  A    between atoms: _224  and  _226
REMARK   93  A    between atoms: _226  and  _227
REMARK   94  A    between atoms: _226  and  _229
REMARK   95  A    between atoms: _229  and  _230
REMARK   96  A    between atoms: _232  and  _234
REMARK   97  A    between atoms: _241  and  _242
REMARK   98  A    between atoms: _247  and  _248
REMARK   99  A    between atoms: _253  and  _255
REMARK  100  A    between atoms: _255  and  _256
REMARK  101  A    between atoms: _255  and  _258
REMARK  102  A    between atoms: _258  and  _259
REMARK  103  A    between atoms: _259  and  _260
REMARK  104  A    between atoms: _264  and  _265
REMARK  105  A    between atoms: _270  and  _272
REMARK  106  A    between atoms: _272  and  _273
REMARK  107  A    between atoms: _272  and  _275
REMARK  108  A    between atoms: _275  and  _276
REMARK  109  A    between atoms: _281  and  _282
REMARK  110  A    between atoms: _284  and  _286
REMARK  111  A    between atoms: _286  and  _287
REMARK  112  A    between atoms: _286  and  _289
REMARK  113  A    between atoms: _289  and  _290
REMARK  114  A    between atoms: _293  and  _295
REMARK  115  A    between atoms: _295  and  _296
REMARK  116  A    between atoms: _295  and  _298
REMARK  117  A    between atoms: _298  and  _299
REMARK  118  A    between atoms: _302  and  _304
REMARK  119  A    between atoms: _304  and  _305
REMARK  120  A    between atoms: _304  and  _307
REMARK  121  A    between atoms: _310  and  _312
REMARK  122  A    between atoms: _312  and  _313
REMARK  123  A    between atoms: _312  and  _315
REMARK  124  A    between atoms: _315  and  _316
REMARK  125  A    between atoms: _321  and  _323
REMARK  126  A    between atoms: _323  and  _324
REMARK  127  A    between atoms: _323  and  _326
REMARK  128  A    between atoms: _326  and  _327
REMARK  129  A    between atoms: _330  and  _332
REMARK  130  A    between atoms: _332  and  _333
REMARK  131  A    between atoms: _332  and  _335
REMARK  132  A    between atoms: _335  and  _336
REMARK  133  A    between atoms: _336  and  _337
REMARK  134  A    between atoms: _342  and  _344
REMARK  135  A    between atoms: _344  and  _345
REMARK  136  A    between atoms: _344  and  _347
REMARK  137  A    between atoms: _347  and  _348
REMARK  138  A    between atoms: _353  and  _354
REMARK  139  A    between atoms: _356  and  _358
REMARK  140  A    between atoms: _358  and  _359
REMARK  141  A    between atoms: _358  and  _361
REMARK  142  A    between atoms: _361  and  _362
REMARK  143  A    between atoms: _362  and  _363
REMARK  144  A    between atoms: _366  and  _368
REMARK  145  A    between atoms: _368  and  _369
REMARK  146  A    between atoms: _368  and  _371
REMARK  147  A    between atoms: _371  and  _372
REMARK  148  A    between atoms: _372  and  _373
REMARK  149  A    between atoms: _378  and  _380
REMARK  150  A    between atoms: _380  and  _381
REMARK  151  A    between atoms: _380  and  _383
REMARK  152  A    between atoms: _383  and  _384
REMARK  153  A    between atoms: _384  and  _385
REMARK  154  A    between atoms: _390  and  _392
REMARK  155  A    between atoms: _392  and  _393
REMARK  156  A    between atoms: _392  and  _395
REMARK  157  A    between atoms: _395  and  _396
REMARK  158  A    between atoms: _396  and  _397
REMARK  159  A    between atoms: _397  and  _398
REMARK  160  A    between atoms: _407  and  _409
REMARK  161  A    between atoms: _409  and  _410
REMARK  162  A    between atoms: _409  and  _412
REMARK  163  A    between atoms: _412  and  _413
REMARK  164  A    between atoms: _416  and  _418
REMARK  165  A    between atoms: _418  and  _419
REMARK  166  A    between atoms: _418  and  _421
REMARK  167  A    between atoms: _421  and  _422
REMARK  168  A    between atoms: _428  and  _430
REMARK  169  A    between atoms: _430  and  _431
REMARK  170  A    between atoms: _430  and  _433
REMARK  171  A    between atoms: _433  and  _434
REMARK  172  A    between atoms: _434  and  _435
REMARK  173  A    between atoms: _435  and  _436
REMARK  174  A    between atoms: _445  and  _447
REMARK  175  A    between atoms: _447  and  _448
REMARK  176  A    between atoms: _447  and  _450
REMARK  177  A    between atoms: _450  and  _451
REMARK  178  A    between atoms: _454  and  _456
REMARK  179  A    between atoms: _456  and  _457
REMARK  180  A    between atoms: _456  and  _459
REMARK  181  A    between atoms: _459  and  _460
REMARK  182  A    between atoms: _463  and  _464
REMARK  183  A    between atoms: _469  and  _471
REMARK  184  A    between atoms: _471  and  _472
REMARK  185  A    between atoms: _471  and  _474
REMARK  186  A    between atoms: _474  and  _475
REMARK  187  A    between atoms: _478  and  _480
REMARK  188  A    between atoms: _480  and  _481
REMARK  189  A    between atoms: _484  and  _486
REMARK  190  A    between atoms: _486  and  _487
REMARK  191  A    between atoms: _486  and  _489
REMARK  192  A    between atoms: _492  and  _494
REMARK  193  A    between atoms: _494  and  _495
REMARK  194  A    between atoms: _494  and  _497
REMARK  195  A    between atoms: _500  and  _502
REMARK  196  A    between atoms: _502  and  _503
REMARK  197  A    between atoms: _502  and  _505
REMARK  198  A    between atoms: _505  and  _506
REMARK  199  A    between atoms: _509  and  _511
REMARK  200  A    between atoms: _511  and  _512
REMARK  201  A    between atoms: _511  and  _514
REMARK  202  A    between atoms: _517  and  _519
REMARK  203  A    between atoms: _519  and  _520
REMARK  204  A    between atoms: _519  and  _522
REMARK  205  A    between atoms: _522  and  _523
REMARK  206  A    between atoms: _523  and  _524
REMARK  207  A    between atoms: _526  and  _528
REMARK  208  A    between atoms: _528  and  _529
REMARK  209  A    between atoms: _528  and  _531
REMARK  210  A    between atoms: _531  and  _532
REMARK  211  A    between atoms: _538  and  _540
REMARK  212  A    between atoms: _540  and  _541
REMARK  213  A    between atoms: _540  and  _543
REMARK  214  A    between atoms: _543  and  _544
REMARK  215  A    between atoms: _548  and  _549
REMARK  216  A    between atoms: _554  and  _556
REMARK  217  A    between atoms: _556  and  _557
REMARK  218  A    between atoms: _560  and  _562
REMARK  219  A    between atoms: _562  and  _563
REMARK  220  A    between atoms: _562  and  _565
REMARK  221  A    between atoms: _565  and  _566
REMARK                            x       y       z     vdW  Elec       q    Type
REMARK                         _______ _______ _______ _____ _____    ______ ____
ROOT
ATOM      1  CA  VAL A   3       0.020  24.874  11.213  0.00  0.00    +0.149 C 
ENDROOT
BRANCH   1   3
ATOM      2  C   ALA A   2       0.231  22.646  10.244  0.00  0.00    +0.241 C 
ATOM      3  N   VAL A   3      -0.479  23.528  10.945  0.00  0.00    -0.297 N 
ATOM      4  H   VAL A   3      -1.412  23.251  11.311  0.00  0.00    +0.150 HD
ATOM      5  O   ALA A   2       1.305  22.915   9.715  0.00  0.00    -0.273 OA
BRANCH   2   6
ATOM      6  CA  ALA A   2      -0.349  21.247  10.139  0.00  0.00    +0.149 C 
ATOM      7  CB  ALA A   2      -0.194  20.535  11.469  0.00  0.00    +0.031 C 
BRANCH   6   9
ATOM      8  C   ILE A   1      -0.289  20.057   7.989  0.00  0.00    +0.238 C 
ATOM      9  N   ALA A   2       0.331  20.492   9.085  0.00  0.00    -0.297 N 
ATOM     10  H   ALA A   2       1.344  20.286   9.197  0.00  0.00    +0.150 HD
ATOM     11  O   ILE A   1      -1.481  20.256   7.762  0.00  0.00    -0.274 OA
BRANCH   8  12
ATOM     12  CA  ILE A   1       0.567  19.272   6.997  0.00  0.00    +0.145 C 
BRANCH  12  13
ATOM     13  N   ILE A   1      -0.170  18.082   6.596  0.00  0.00    -0.238 NA
ATOM     14  H   ILE A   1      -1.159  18.208   6.301  0.00  0.00    +0.142 HD
ENDBRANCH  12  13
BRANCH  12  15
ATOM     15  CB  ILE A   1       0.885  20.168   5.773  0.00  0.00    +0.025 C 
ATOM     16  CG2 ILE A   1       1.695  21.393   6.193  0.00  0.00    +0.002 C 
BRANCH  15  17
ATOM     17  CG1 ILE A   1       1.666  19.383   4.714  0.00  0.00    +0.002 C 
ATOM     18  CD1 ILE A   1       1.658  20.019   3.331  0.00  0.00    +0.000 C 
ENDBRANCH  15  17
ENDBRANCH  12  15
ENDBRANCH   8  12
ENDBRANCH   6   9
ENDBRANCH   2   6
ENDBRANCH   1   3
BRANCH   1  19
ATOM     19  C   VAL A   3       0.170  25.071  12.717  0.00  0.00    +0.241 C 
ATOM     20  O   VAL A   3      -0.769  24.865  13.474  0.00  0.00    -0.273 OA
ATOM     21  N   VAL A   4       1.373  25.458  13.125  0.00  0.00    -0.297 N 
ATOM     22  H   VAL A   4       2.126  25.557  12.414  0.00  0.00    +0.150 HD
BRANCH  21  23
ATOM     23  CA  VAL A   4       1.694  25.751  14.518  0.00  0.00    +0.149 C 
BRANCH  23  24
ATOM     24  C   VAL A   4       1.792  27.265  14.700  0.00  0.00    +0.241 C 
ATOM     25  N   THR A   5       1.087  27.791  15.701  0.00  0.00    -0.296 N 
ATOM     26  H   THR A   5       0.490  27.160  16.272  0.00  0.00    +0.150 HD
ATOM     27  O   VAL A   4       2.510  27.928  13.956  0.00  0.00    -0.273 OA
BRANCH  25  28
ATOM     28  CA  THR A   5       1.114  29.218  16.035  0.00  0.00    +0.164 C 
BRANCH  28  29
ATOM     29  CB  THR A   5      -0.332  29.742  16.246  0.00  0.00    +0.136 C 
ATOM     30  CG2 THR A   5      -0.372  31.247  16.447  0.00  0.00    +0.034 C 
BRANCH  29  31
ATOM     31  OG1 THR A   5      -1.131  29.412  15.100  0.00  0.00    -0.382 OA
ATOM     32  HG1 THR A   5      -1.149  28.429  14.984  0.00  0.00    +0.210 HD
ENDBRANCH  29  31
ENDBRANCH  28  29
BRANCH  28  33
ATOM     33  C   THR A   5       1.984  29.451  17.282  0.00  0.00    +0.229 C 
ATOM     34  O   THR A   5       2.229  28.532  18.063  0.00  0.00    -0.286 OA
ENDBRANCH  28  33
ENDBRANCH  25  28
ENDBRANCH  23  24
BRANCH  23  35
ATOM     35  CB  VAL A   4       3.056  25.135  14.926  0.00  0.00    +0.027 C 
ATOM     36  CG2 VAL A   4       3.325  25.350  16.410  0.00  0.00    +0.002 C 
ATOM     37  CG1 VAL A   4       3.097  23.655  14.594  0.00  0.00    +0.002 C 
ENDBRANCH  23  35
ENDBRANCH  21  23
ENDBRANCH   1  19
BRANCH   1  38
ATOM     38  CB  VAL A   3      -0.897  25.961  10.605  0.00  0.00    +0.027 C 
ATOM     39  CG2 VAL A   3      -0.393  27.354  10.957  0.00  0.00    +0.002 C 
ATOM     40  CG1 VAL A   3      -0.977  25.790   9.083  0.00  0.00    +0.002 C 
ENDBRANCH   1  38
TORSDOF 16
REMARK  Name = ../refined-set-2016/2bys/2bys_pocket.pdb
REMARK  221 active torsions:
REMARK  status: ('A' for Active; 'I' for Inactive)
REMARK    1  A    between atoms: _1  and  _3
REMARK    2  A    between atoms: _3  and  _4
REMARK    3  A    between atoms: _3  and  _6
REMARK    4  A    between atoms: _6  and  _7
REMARK    5  A    between atoms: _10  and  _12
REMARK    6  A    between atoms: _12  and  _13
REMARK    7  A    between atoms: _12  and  _15
REMARK    8  A    between atoms: _15  and  _16
REMARK    9  A    between atoms: _19  and  _21
REMARK   10  A    between atoms: _21  and  _22
REMARK   11  A    between atoms: _21  and  _24
REMARK   12  A    between atoms: _24  and  _25
REMARK   13  A    between atoms: _28  and  _30
REMARK   14  A    between atoms: _30  and  _31
REMARK   15  A    between atoms: _34  and  _36
REMARK   16  A    between atoms: _36  and  _37
REMARK   17  A    between atoms: _36  and  _39
REMARK   18  A    between atoms: _39  and  _40
REMARK   19  A    between atoms: _45  and  _46
REMARK   20  A    between atoms: _48  and  _50
REMARK   21  A    between atoms: _50  and  _51
REMARK   22  A    between atoms: _50  and  _53
REMARK   23  A    between atoms: _53  and  _54
REMARK   24  A    between atoms: _56  and  _58
REMARK   25  A    between atoms: _58  and  _59
REMARK   26  A    between atoms: _58  and  _61
REMARK   27  A    between atoms: _61  and  _62
REMARK   28  A    between atoms: _64  and  _66
REMARK   29  A    between atoms: _66  and  _67
REMARK   30  A    between atoms: _66  and  _69
REMARK   31  A    between atoms: _72  and  _74
REMARK   32  A    between atoms: _74  and  _75
REMARK   33  A    between atoms: _74  and  _77
REMARK   34  A    between atoms: _77  and  _78
REMARK   35  A    between atoms: _78  and  _79
REMARK   36  A    between atoms: _79  and  _80
REMARK   37  A    between atoms: _80  and  _81
REMARK   38  A    between atoms: _85  and  _87
REMARK   39  A    between atoms: _87  and  _88
REMARK   40  A    between atoms: _87  and  _90
REMARK   41  A    between atoms: _90  and  _91
REMARK   42  A    between atoms: _97  and  _99
REMARK   43  A    between atoms: _99  and  _100
REMARK   44  A    between atoms: _102  and  _104
REMARK   45  A    between atoms: _104  and  _105
REMARK   46  A    between atoms: _104  and  _107
REMARK   47  A    between atoms: _107  and  _108
REMARK   48  A    between atoms: _110  and  _112
REMARK   49  A    between atoms: _112  and  _113
REMARK   50  A    between atoms: _112  and  _115
REMARK   51  A    between atoms: _115  and  _116
REMARK   52  A    between atoms: _126  and  _128
REMARK   53  A    between atoms: _128  and  _129
REMARK   54  A    between atoms: _128  and  _131
REMARK   55  A    between atoms: _134  and  _136
REMARK   56  A    between atoms: _136  and  _137
REMARK   57  A    between atoms: _136  and  _139
REMARK   58  A    between atoms: _139  and  _140
REMARK   59  A    between atoms: _145  and  _146
REMARK   60  A    between atoms: _148  and  _150
REMARK   61  A    between atoms: _150  and  _151
REMARK   62  A    between atoms: _150  and  _153
REMARK   63  A    between atoms: _153  and  _154
REMARK   64  A    between atoms: _156  and  _158
REMARK   65  A    between atoms: _158  and  _159
REMARK   66  A    between atoms: _158  and  _161
REMARK   67  A    between atoms: _161  and  _162
REMARK   68  A    between atoms: _162  and  _163
REMARK   69  A    between atoms: _166  and  _168
REMARK   70  A    between atoms: _168  and  _169
REMARK   71  A    between atoms: _168  and  _171
REMARK   72  A    between atoms: _171  and  _172
REMARK   73  A    between atoms: _175  and  _177
REMARK   74  A    between atoms: _177  and  _178
REMARK   75  A    between atoms: _177  and  _180
REMARK   76  A    between atoms: _180  and  _181
REMARK   77  A    between atoms: _181  and  _182
REMARK   78  A    between atoms: _187  and  _189
REMARK   79  A    between atoms: _189  and  _190
REMARK   80  A    between atoms: _189  and  _192
REMARK   81  A    between atoms: _192  and  _193
REMARK   82  A    between atoms: _193  and  _194
REMARK   83  A    between atoms: _199  and  _201
REMARK   84  A    between atoms: _201  and  _202
REMARK   85  A    between atoms: _201  and  _204
REMARK   86  A    between atoms: _204  and  _205
REMARK   87  A    between atoms: _210  and  _212
REMARK   88  A    between atoms: _212  and  _213
REMARK   89  A    between atoms: _212  and  _215
REMARK   90  A    between atoms: _215  and  _216
REMARK   91  A    between atoms: _221  and  _222
REMARK   92  A    between atoms: _224  and  _226
REMARK   93  A    between atoms: _226  and  _227
REMARK   94  A    between atoms: _226  and  _229
REMARK   95  A    between atoms: _229  and  _230
REMARK   96  A    between atoms: _232  and  _234
REMARK   97  A    between atoms: _241  and  _242
REMARK   98  A    between atoms: _247  and  _248
REMARK   99  A    between atoms: _253  and  _255
REMARK  100  A    between atoms: _255  and  _256
REMARK  101  A    between atoms: _255  and  _258
REMARK  102  A    between atoms: _258  and  _259
REMARK  103  A    between atoms: _259  and  _260
REMARK  104  A    between atoms: _264  and  _265
REMARK  105  A    between atoms: _270  and  _272
REMARK  106  A    between atoms: _272  and  _273
REMARK  107  A    between atoms: _272  and  _275
REMARK  108  A    between atoms: _275  and  _276
REMARK  109  A    between atoms: _281  and  _282
REMARK  110  A    between atoms: _284  and  _286
REMARK  111  A    between atoms: _286  and  _287
REMARK  112  A    between atoms: _286  and  _289
REMARK  113  A    between atoms: _289  and  _290
REMARK  114  A    between atoms: _293  and  _295
REMARK  115  A    between atoms: _295  and  _296
REMARK  116  A    between atoms: _295  and  _298
REMARK  117  A    between atoms: _298  and  _299
REMARK  118  A    between atoms: _302  and  _304
REMARK  119  A    between atoms: _304  and  _305
REMARK  120  A    between atoms: _304  and  _307
REMARK  121  A    between atoms: _310  and  _312
REMARK  122  A    between atoms: _312  and  _313
REMARK  123  A    between atoms: _312  and  _315
REMARK  124  A    between atoms: _315  and  _316
REMARK  125  A    between atoms: _321  and  _323
REMARK  126  A    between atoms: _323  and  _324
REMARK  127  A    between atoms: _323  and  _326
REMARK  128  A    between atoms: _326  and  _327
REMARK  129  A    between atoms: _330  and  _332
REMARK  130  A    between atoms: _332  and  _333
REMARK  131  A    between atoms: _332  and  _335
REMARK  132  A    between atoms: _335  and  _336
REMARK  133  A    between atoms: _336  and  _337
REMARK  134  A    between atoms: _342  and  _344
REMARK  135  A    between atoms: _344  and  _345
REMARK  136  A    between atoms: _344  and  _347
REMARK  137  A    between atoms: _347  and  _348
REMARK  138  A    between atoms: _353  and  _354
REMARK  139  A    between atoms: _356  and  _358
REMARK  140  A    between atoms: _358  and  _359
REMARK  141  A    between atoms: _358  and  _361
REMARK  142  A    between atoms: _361  and  _362
REMARK  143  A    between atoms: _362  and  _363
REMARK  144  A    between atoms: _366  and  _368
REMARK  145  A    between atoms: _368  and  _369
REMARK  146  A    between atoms: _368  and  _371
REMARK  147  A    between atoms: _371  and  _372
REMARK  148  A    between atoms: _372  and  _373
REMARK  149  A    between atoms: _378  and  _380
REMARK  150  A    between atoms: _380  and  _381
REMARK  151  A    between atoms: _380  and  _383
REMARK  152  A    between atoms: _383  and  _384
REMARK  153  A    between atoms: _384  and  _385
REMARK  154  A    between atoms: _390  and  _392
REMARK  155  A    between atoms: _392  and  _393
REMARK  156  A    between atoms: _392  and  _395
REMARK  157  A    between atoms: _395  and  _396
REMARK  158  A    between atoms: _396  and  _397
REMARK  159  A    between atoms: _397  and  _398
REMARK  160  A    between atoms: _407  and  _409
REMARK  161  A    between atoms: _409  and  _410
REMARK  162  A    between atoms: _409  and  _412
REMARK  163  A    between atoms: _412  and  _413
REMARK  164  A    between atoms: _416  and  _418
REMARK  165  A    between atoms: _418  and  _419
REMARK  166  A    between atoms: _418  and  _421
REMARK  167  A    between atoms: _421  and  _422
REMARK  168  A    between atoms: _428  and  _430
REMARK  169  A    between atoms: _430  and  _431
REMARK  170  A    between atoms: _430  and  _433
REMARK  171  A    between atoms: _433  and  _434
REMARK  172  A    between atoms: _434  and  _435
REMARK  173  A    between atoms: _435  and  _436
REMARK  174  A    between atoms: _445  and  _447
REMARK  175  A    between atoms: _447  and  _448
REMARK  176  A    between atoms: _447  and  _450
REMARK  177  A    between atoms: _450  and  _451
REMARK  178  A    between atoms: _454  and  _456
REMARK  179  A    between atoms: _456  and  _457
REMARK  180  A    between atoms: _456  and  _459
REMARK  181  A    between atoms: _459  and  _460
REMARK  182  A    between atoms: _463  and  _464
REMARK  183  A    between atoms: _469  and  _471
REMARK  184  A    between atoms: _471  and  _472
REMARK  185  A    between atoms: _471  and  _474
REMARK  186  A    between atoms: _474  and  _475
REMARK  187  A    between atoms: _478  and  _480
REMARK  188  A    between atoms: _480  and  _481
REMARK  189  A    between atoms: _484  and  _486
REMARK  190  A    between atoms: _486  and  _487
REMARK  191  A    between atoms: _486  and  _489
REMARK  192  A    between atoms: _492  and  _494
REMARK  193  A    between atoms: _494  and  _495
REMARK  194  A    between atoms: _494  and  _497
REMARK  195  A    between atoms: _500  and  _502
REMARK  196  A    between atoms: _502  and  _503
REMARK  197  A    between atoms: _502  and  _505
REMARK  198  A    between atoms: _505  and  _506
REMARK  199  A    between atoms: _509  and  _511
REMARK  200  A    between atoms: _511  and  _512
REMARK  201  A    between atoms: _511  and  _514
REMARK  202  A    between atoms: _517  and  _519
REMARK  203  A    between atoms: _519  and  _520
REMARK  204  A    between atoms: _519  and  _522
REMARK  205  A    between atoms: _522  and  _523
REMARK  206  A    between atoms: _523  and  _524
REMARK  207  A    between atoms: _526  and  _528
REMARK  208  A    between atoms: _528  and  _529
REMARK  209  A    between atoms: _528  and  _531
REMARK  210  A    between atoms: _531  and  _532
REMARK  211  A    between atoms: _538  and  _540
REMARK  212  A    between atoms: _540  and  _541
REMARK  213  A    between atoms: _540  and  _543
REMARK  214  A    between atoms: _543  and  _544
REMARK  215  A    between atoms: _548  and  _549
REMARK  216  A    between atoms: _554  and  _556
REMARK  217  A    between atoms: _556  and  _557
REMARK  218  A    between atoms: _560  and  _562
REMARK  219  A    between atoms: _562  and  _563
REMARK  220  A    between atoms: _562  and  _565
REMARK  221  A    between atoms: _565  and  _566
REMARK                            x       y       z     vdW  Elec       q    Type
REMARK                         _______ _______ _______ _____ _____    ______ ____
ROOT
ATOM      1  CA  PHE A   3      -4.753  20.220  11.353  0.00  0.00    +0.153 C 
ENDROOT
BRANCH   1   3
ATOM      2  C   MET A   2      -4.113  22.281  12.528  0.00  0.00    +0.241 C 
ATOM      3  N   PHE A   3      -4.970  21.284  12.336  0.00  0.00    -0.297 N 
ATOM      4  H   PHE A   3      -5.836  21.258  12.911  0.00  0.00    +0.150 HD
ATOM      5  O   MET A   2      -3.088  22.444  11.857  0.00  0.00    -0.273 OA
BRANCH   2   6
ATOM      6  CA  MET A   2      -4.472  23.234  13.665  0.00  0.00    +0.149 C 
BRANCH   6   9
ATOM      7  C   VAL A   1      -3.194  23.426  15.730  0.00  0.00    +0.238 C 
ATOM      8  O   VAL A   1      -4.154  23.119  16.423  0.00  0.00    -0.274 OA
ATOM      9  N   MET A   2      -3.275  23.610  14.415  0.00  0.00    -0.297 N 
ATOM     10  H   MET A   2      -2.469  24.030  13.910  0.00  0.00    +0.150 HD
BRANCH   7  11
ATOM     11  CA  VAL A   1      -1.835  23.643  16.370  0.00  0.00    +0.145 C 
BRANCH  11  12
ATOM     12  CB  VAL A   1      -1.160  22.261  16.568  0.00  0.00    +0.025 C 
ATOM     13  CG2 VAL A   1       0.084  22.380  17.431  0.00  0.00    +0.002 C 
ATOM     14  CG1 VAL A   1      -0.809  21.631  15.224  0.00  0.00    +0.002 C 
ENDBRANCH  11  12
BRANCH  11  15
ATOM     15  N   VAL A   1      -2.013  24.350  17.641  0.00  0.00    -0.238 NA
ATOM     16  H   VAL A   1      -2.682  23.962  18.337  0.00  0.00    +0.142 HD
ENDBRANCH  11  15
ENDBRANCH   7  11
ENDBRANCH   6   9
BRANCH   6  17
ATOM     17  CB  MET A   2      -5.208  24.455  13.120  0.00  0.00    +0.041 C 
BRANCH  17  18
ATOM     18  CG  MET A   2      -6.533  24.081  12.474  0.00  0.00    +0.060 C 
BRANCH  18  19
ATOM     19  SD  MET A   2      -7.741  25.398  12.544  0.00  0.00    -0.139 S 
ATOM     20  CE  MET A   2      -7.236  26.437  11.172  0.00  0.00    +0.069 C 
ENDBRANCH  18  19
ENDBRANCH  17  18
ENDBRANCH   6  17
ENDBRANCH   2   6
ENDBRANCH   1   3
BRANCH   1  21
ATOM     21  C   PHE A   3      -6.110  19.816  10.804  0.00  0.00    +0.241 C 
ATOM     22  O   PHE A   3      -7.020  19.519  11.568  0.00  0.00    -0.273 OA
ATOM     23  N   ILE A   4      -6.250  19.846   9.480  0.00  0.00    -0.297 N 
ATOM     24  H   ILE A   4      -5.413  20.029   8.890  0.00  0.00    +0.150 HD
BRANCH  23  25
ATOM     25  CA  ILE A   4      -7.544  19.630   8.827  0.00  0.00    +0.149 C 
BRANCH  25  26
ATOM     26  C   ILE A   4      -7.421  18.604   7.675  0.00  0.00    +0.244 C 
ATOM     27  N   PRO A   5      -7.289  17.316   8.024  0.00  0.00    -0.272 N 
ATOM     28  CD  PRO A   5      -7.221  16.772   9.394  0.00  0.00    +0.094 C 
ATOM     29  CG  PRO A   5      -7.245  15.297   9.193  0.00  0.00    +0.024 C 
ATOM     30  CB  PRO A   5      -6.670  15.076   7.842  0.00  0.00    +0.031 C 
ATOM     31  CA  PRO A   5      -7.173  16.264   7.023  0.00  0.00    +0.152 C 
ATOM     32  O   ILE A   4      -7.443  18.964   6.498  0.00  0.00    -0.273 OA
BRANCH  31  33
ATOM     33  C   PRO A   5      -8.514  15.915   6.370  0.00  0.00    +0.241 C 
ATOM     34  O   PRO A   5      -9.518  15.860   7.063  0.00  0.00    -0.273 OA
ATOM     35  N   ALA A   6      -8.511  15.722   5.047  0.00  0.00    -0.298 N 
ATOM     36  H   ALA A   6      -7.656  15.963   4.506  0.00  0.00    +0.150 HD
BRANCH  35  37
ATOM     37  CA  ALA A   6      -9.675  15.180   4.332  0.00  0.00    +0.137 C 
ATOM     38  CB  ALA A   6      -9.807  15.803   2.939  0.00  0.00    +0.030 C 
BRANCH  37  39
ATOM     39  C   ALA A   6      -9.523  13.668   4.235  0.00  0.00    +0.227 C 
ATOM     40  O   ALA A   6      -8.426  13.164   4.003  0.00  0.00    -0.286 OA
ENDBRANCH  37  39
ENDBRANCH  35  37
ENDBRANCH  31  33
ENDBRANCH  25  26
BRANCH  25  41
ATOM     41  CB  ILE A   4      -8.153  20.969   8.337  0.00  0.00    +0.027 C 
ATOM     42  CG2 ILE A   4      -9.612  20.774   7.936  0.00  0.00    +0.002 C 
BRANCH  41  43
ATOM     43  CG1 ILE A   4      -8.033  22.038   9.433  0.00  0.00    +0.002 C 
ATOM     44  CD1 ILE A   4      -8.626  23.384   9.074  0.00  0.00    +0.000 C 
ENDBRANCH  41  43
ENDBRANCH  25  41
ENDBRANCH  23  25
ENDBRANCH   1  21
BRANCH   1  45
ATOM     45  CB  PHE A   3      -4.062  19.032  12.037  0.00  0.00    +0.055 C 
BRANCH  45  46
ATOM     46  CG  PHE A   3      -3.691  17.899  11.116  0.00  0.00    -0.020 A 
ATOM     47  CD2 PHE A   3      -3.876  16.589  11.520  0.00  0.00    -0.004 A 
ATOM     48  CE2 PHE A   3      -3.524  15.519  10.684  0.00  0.00    -0.000 A 
ATOM     49  CZ  PHE A   3      -2.959  15.769   9.442  0.00  0.00    -0.000 A 
ATOM     50  CE1 PHE A   3      -2.751  17.075   9.035  0.00  0.00    -0.000 A 
ATOM     51  CD1 PHE A   3      -3.111  18.132   9.876  0.00  0.00    -0.004 A 
ENDBRANCH  45  46
ENDBRANCH   1  45
TORSDOF 19
REMARK  Name = ../refined-set-2016/2bys/2bys_pocket.pdb
REMARK  221 active torsions:
REMARK  status: ('A' for Active; 'I' for Inactive)
REMARK    1  A    between atoms: _1  and  _3
REMARK    2  A    between atoms: _3  and  _4
REMARK    3  A    between atoms: _3  and  _6
REMARK    4  A    between atoms: _6  and  _7
REMARK    5  A    between atoms: _10  and  _12
REMARK    6  A    between atoms: _12  and  _13
REMARK    7  A    between atoms: _12  and  _15
REMARK    8  A    between atoms: _15  and  _16
REMARK    9  A    between atoms: _19  and  _21
REMARK   10  A    between atoms: _21  and  _22
REMARK   11  A    between atoms: _21  and  _24
REMARK   12  A    between atoms: _24  and  _25
REMARK   13  A    between atoms: _28  and  _30
REMARK   14  A    between atoms: _30  and  _31
REMARK   15  A    between atoms: _34  and  _36
REMARK   16  A    between atoms: _36  and  _37
REMARK   17  A    between atoms: _36  and  _39
REMARK   18  A    between atoms: _39  and  _40
REMARK   19  A    between atoms: _45  and  _46
REMARK   20  A    between atoms: _48  and  _50
REMARK   21  A    between atoms: _50  and  _51
REMARK   22  A    between atoms: _50  and  _53
REMARK   23  A    between atoms: _53  and  _54
REMARK   24  A    between atoms: _56  and  _58
REMARK   25  A    between atoms: _58  and  _59
REMARK   26  A    between atoms: _58  and  _61
REMARK   27  A    between atoms: _61  and  _62
REMARK   28  A    between atoms: _64  and  _66
REMARK   29  A    between atoms: _66  and  _67
REMARK   30  A    between atoms: _66  and  _69
REMARK   31  A    between atoms: _72  and  _74
REMARK   32  A    between atoms: _74  and  _75
REMARK   33  A    between atoms: _74  and  _77
REMARK   34  A    between atoms: _77  and  _78
REMARK   35  A    between atoms: _78  and  _79
REMARK   36  A    between atoms: _79  and  _80
REMARK   37  A    between atoms: _80  and  _81
REMARK   38  A    between atoms: _85  and  _87
REMARK   39  A    between atoms: _87  and  _88
REMARK   40  A    between atoms: _87  and  _90
REMARK   41  A    between atoms: _90  and  _91
REMARK   42  A    between atoms: _97  and  _99
REMARK   43  A    between atoms: _99  and  _100
REMARK   44  A    between atoms: _102  and  _104
REMARK   45  A    between atoms: _104  and  _105
REMARK   46  A    between atoms: _104  and  _107
REMARK   47  A    between atoms: _107  and  _108
REMARK   48  A    between atoms: _110  and  _112
REMARK   49  A    between atoms: _112  and  _113
REMARK   50  A    between atoms: _112  and  _115
REMARK   51  A    between atoms: _115  and  _116
REMARK   52  A    between atoms: _126  and  _128
REMARK   53  A    between atoms: _128  and  _129
REMARK   54  A    between atoms: _128  and  _131
REMARK   55  A    between atoms: _134  and  _136
REMARK   56  A    between atoms: _136  and  _137
REMARK   57  A    between atoms: _136  and  _139
REMARK   58  A    between atoms: _139  and  _140
REMARK   59  A    between atoms: _145  and  _146
REMARK   60  A    between atoms: _148  and  _150
REMARK   61  A    between atoms: _150  and  _151
REMARK   62  A    between atoms: _150  and  _153
REMARK   63  A    between atoms: _153  and  _154
REMARK   64  A    between atoms: _156  and  _158
REMARK   65  A    between atoms: _158  and  _159
REMARK   66  A    between atoms: _158  and  _161
REMARK   67  A    between atoms: _161  and  _162
REMARK   68  A    between atoms: _162  and  _163
REMARK   69  A    between atoms: _166  and  _168
REMARK   70  A    between atoms: _168  and  _169
REMARK   71  A    between atoms: _168  and  _171
REMARK   72  A    between atoms: _171  and  _172
REMARK   73  A    between atoms: _175  and  _177
REMARK   74  A    between atoms: _177  and  _178
REMARK   75  A    between atoms: _177  and  _180
REMARK   76  A    between atoms: _180  and  _181
REMARK   77  A    between atoms: _181  and  _182
REMARK   78  A    between atoms: _187  and  _189
REMARK   79  A    between atoms: _189  and  _190
REMARK   80  A    between atoms: _189  and  _192
REMARK   81  A    between atoms: _192  and  _193
REMARK   82  A    between atoms: _193  and  _194
REMARK   83  A    between atoms: _199  and  _201
REMARK   84  A    between atoms: _201  and  _202
REMARK   85  A    between atoms: _201  and  _204
REMARK   86  A    between atoms: _204  and  _205
REMARK   87  A    between atoms: _210  and  _212
REMARK   88  A    between atoms: _212  and  _213
REMARK   89  A    between atoms: _212  and  _215
REMARK   90  A    between atoms: _215  and  _216
REMARK   91  A    between atoms: _221  and  _222
REMARK   92  A    between atoms: _224  and  _226
REMARK   93  A    between atoms: _226  and  _227
REMARK   94  A    between atoms: _226  and  _229
REMARK   95  A    between atoms: _229  and  _230
REMARK   96  A    between atoms: _232  and  _234
REMARK   97  A    between atoms: _241  and  _242
REMARK   98  A    between atoms: _247  and  _248
REMARK   99  A    between atoms: _253  and  _255
REMARK  100  A    between atoms: _255  and  _256
REMARK  101  A    between atoms: _255  and  _258
REMARK  102  A    between atoms: _258  and  _259
REMARK  103  A    between atoms: _259  and  _260
REMARK  104  A    between atoms: _264  and  _265
REMARK  105  A    between atoms: _270  and  _272
REMARK  106  A    between atoms: _272  and  _273
REMARK  107  A    between atoms: _272  and  _275
REMARK  108  A    between atoms: _275  and  _276
REMARK  109  A    between atoms: _281  and  _282
REMARK  110  A    between atoms: _284  and  _286
REMARK  111  A    between atoms: _286  and  _287
REMARK  112  A    between atoms: _286  and  _289
REMARK  113  A    between atoms: _289  and  _290
REMARK  114  A    between atoms: _293  and  _295
REMARK  115  A    between atoms: _295  and  _296
REMARK  116  A    between atoms: _295  and  _298
REMARK  117  A    between atoms: _298  and  _299
REMARK  118  A    between atoms: _302  and  _304
REMARK  119  A    between atoms: _304  and  _305
REMARK  120  A    between atoms: _304  and  _307
REMARK  121  A    between atoms: _310  and  _312
REMARK  122  A    between atoms: _312  and  _313
REMARK  123  A    between atoms: _312  and  _315
REMARK  124  A    between atoms: _315  and  _316
REMARK  125  A    between atoms: _321  and  _323
REMARK  126  A    between atoms: _323  and  _324
REMARK  127  A    between atoms: _323  and  _326
REMARK  128  A    between atoms: _326  and  _327
REMARK  129  A    between atoms: _330  and  _332
REMARK  130  A    between atoms: _332  and  _333
REMARK  131  A    between atoms: _332  and  _335
REMARK  132  A    between atoms: _335  and  _336
REMARK  133  A    between atoms: _336  and  _337
REMARK  134  A    between atoms: _342  and  _344
REMARK  135  A    between atoms: _344  and  _345
REMARK  136  A    between atoms: _344  and  _347
REMARK  137  A    between atoms: _347  and  _348
REMARK  138  A    between atoms: _353  and  _354
REMARK  139  A    between atoms: _356  and  _358
REMARK  140  A    between atoms: _358  and  _359
REMARK  141  A    between atoms: _358  and  _361
REMARK  142  A    between atoms: _361  and  _362
REMARK  143  A    between atoms: _362  and  _363
REMARK  144  A    between atoms: _366  and  _368
REMARK  145  A    between atoms: _368  and  _369
REMARK  146  A    between atoms: _368  and  _371
REMARK  147  A    between atoms: _371  and  _372
REMARK  148  A    between atoms: _372  and  _373
REMARK  149  A    between atoms: _378  and  _380
REMARK  150  A    between atoms: _380  and  _381
REMARK  151  A    between atoms: _380  and  _383
REMARK  152  A    between atoms: _383  and  _384
REMARK  153  A    between atoms: _384  and  _385
REMARK  154  A    between atoms: _390  and  _392
REMARK  155  A    between atoms: _392  and  _393
REMARK  156  A    between atoms: _392  and  _395
REMARK  157  A    between atoms: _395  and  _396
REMARK  158  A    between atoms: _396  and  _397
REMARK  159  A    between atoms: _397  and  _398
REMARK  160  A    between atoms: _407  and  _409
REMARK  161  A    between atoms: _409  and  _410
REMARK  162  A    between atoms: _409  and  _412
REMARK  163  A    between atoms: _412  and  _413
REMARK  164  A    between atoms: _416  and  _418
REMARK  165  A    between atoms: _418  and  _419
REMARK  166  A    between atoms: _418  and  _421
REMARK  167  A    between atoms: _421  and  _422
REMARK  168  A    between atoms: _428  and  _430
REMARK  169  A    between atoms: _430  and  _431
REMARK  170  A    between atoms: _430  and  _433
REMARK  171  A    between atoms: _433  and  _434
REMARK  172  A    between atoms: _434  and  _435
REMARK  173  A    between atoms: _435  and  _436
REMARK  174  A    between atoms: _445  and  _447
REMARK  175  A    between atoms: _447  and  _448
REMARK  176  A    between atoms: _447  and  _450
REMARK  177  A    between atoms: _450  and  _451
REMARK  178  A    between atoms: _454  and  _456
REMARK  179  A    between atoms: _456  and  _457
REMARK  180  A    between atoms: _456  and  _459
REMARK  181  A    between atoms: _459  and  _460
REMARK  182  A    between atoms: _463  and  _464
REMARK  183  A    between atoms: _469  and  _471
REMARK  184  A    between atoms: _471  and  _472
REMARK  185  A    between atoms: _471  and  _474
REMARK  186  A    between atoms: _474  and  _475
REMARK  187  A    between atoms: _478  and  _480
REMARK  188  A    between atoms: _480  and  _481
REMARK  189  A    between atoms: _484  and  _486
REMARK  190  A    between atoms: _486  and  _487
REMARK  191  A    between atoms: _486  and  _489
REMARK  192  A    between atoms: _492  and  _494
REMARK  193  A    between atoms: _494  and  _495
REMARK  194  A    between atoms: _494  and  _497
REMARK  195  A    between atoms: _500  and  _502
REMARK  196  A    between atoms: _502  and  _503
REMARK  197  A    between atoms: _502  and  _505
REMARK  198  A    between atoms: _505  and  _506
REMARK  199  A    between atoms: _509  and  _511
REMARK  200  A    between atoms: _511  and  _512
REMARK  201  A    between atoms: _511  and  _514
REMARK  202  A    between atoms: _517  and  _519
REMARK  203  A    between atoms: _519  and  _520
REMARK  204  A    between atoms: _519  and  _522
REMARK  205  A    between atoms: _522  and  _523
REMARK  206  A    between atoms: _523  and  _524
REMARK  207  A    between atoms: _526  and  _528
REMARK  208  A    between atoms: _528  and  _529
REMARK  209  A    between atoms: _528  and  _531
REMARK  210  A    between atoms: _531  and  _532
REMARK  211  A    between atoms: _538  and  _540
REMARK  212  A    between atoms: _540  and  _541
REMARK  213  A    between atoms: _540  and  _543
REMARK  214  A    between atoms: _543  and  _544
REMARK  215  A    between atoms: _548  and  _549
REMARK  216  A    between atoms: _554  and  _556
REMARK  217  A    between atoms: _556  and  _557
REMARK  218  A    between atoms: _560  and  _562
REMARK  219  A    between atoms: _562  and  _563
REMARK  220  A    between atoms: _562  and  _565
REMARK  221  A    between atoms: _565  and  _566
REMARK                            x       y       z     vdW  Elec       q    Type
REMARK                         _______ _______ _______ _____ _____    ______ ____
ROOT
ATOM      1  CA  SER A   1     -19.231  22.587   1.045  0.00  0.00    +0.163 C 
ENDROOT
BRANCH   1   2
ATOM      2  N   SER A   1     -19.964  23.169   2.180  0.00  0.00    -0.237 NA
ATOM      3  H   SER A   1     -19.886  22.704   3.107  0.00  0.00    +0.142 HD
ENDBRANCH   1   2
BRANCH   1   4
ATOM      4  C   SER A   1     -19.749  21.191   0.658  0.00  0.00    +0.227 C 
ATOM      5  O   SER A   1     -19.018  20.398   0.048  0.00  0.00    -0.287 OA
ENDBRANCH   1   4
BRANCH   1   6
ATOM      6  CB  SER A   1     -17.738  22.483   1.389  0.00  0.00    +0.162 C 
BRANCH   6   7
ATOM      7  OG  SER A   1     -17.135  23.759   1.418  0.00  0.00    -0.380 OA
ATOM      8  H   SER A   1     -16.175  23.664   1.641  0.00  0.00    +0.211 HD
ENDBRANCH   6   7
ENDBRANCH   1   6
TORSDOF 4
REMARK  Name = ../refined-set-2016/2bys/2bys_pocket.pdb
REMARK  221 active torsions:
REMARK  status: ('A' for Active; 'I' for Inactive)
REMARK    1  A    between atoms: _1  and  _3
REMARK    2  A    between atoms: _3  and  _4
REMARK    3  A    between atoms: _3  and  _6
REMARK    4  A    between atoms: _6  and  _7
REMARK    5  A    between atoms: _10  and  _12
REMARK    6  A    between atoms: _12  and  _13
REMARK    7  A    between atoms: _12  and  _15
REMARK    8  A    between atoms: _15  and  _16
REMARK    9  A    between atoms: _19  and  _21
REMARK   10  A    between atoms: _21  and  _22
REMARK   11  A    between atoms: _21  and  _24
REMARK   12  A    between atoms: _24  and  _25
REMARK   13  A    between atoms: _28  and  _30
REMARK   14  A    between atoms: _30  and  _31
REMARK   15  A    between atoms: _34  and  _36
REMARK   16  A    between atoms: _36  and  _37
REMARK   17  A    between atoms: _36  and  _39
REMARK   18  A    between atoms: _39  and  _40
REMARK   19  A    between atoms: _45  and  _46
REMARK   20  A    between atoms: _48  and  _50
REMARK   21  A    between atoms: _50  and  _51
REMARK   22  A    between atoms: _50  and  _53
REMARK   23  A    between atoms: _53  and  _54
REMARK   24  A    between atoms: _56  and  _58
REMARK   25  A    between atoms: _58  and  _59
REMARK   26  A    between atoms: _58  and  _61
REMARK   27  A    between atoms: _61  and  _62
REMARK   28  A    between atoms: _64  and  _66
REMARK   29  A    between atoms: _66  and  _67
REMARK   30  A    between atoms: _66  and  _69
REMARK   31  A    between atoms: _72  and  _74
REMARK   32  A    between atoms: _74  and  _75
REMARK   33  A    between atoms: _74  and  _77
REMARK   34  A    between atoms: _77  and  _78
REMARK   35  A    between atoms: _78  and  _79
REMARK   36  A    between atoms: _79  and  _80
REMARK   37  A    between atoms: _80  and  _81
REMARK   38  A    between atoms: _85  and  _87
REMARK   39  A    between atoms: _87  and  _88
REMARK   40  A    between atoms: _87  and  _90
REMARK   41  A    between atoms: _90  and  _91
REMARK   42  A    between atoms: _97  and  _99
REMARK   43  A    between atoms: _99  and  _100
REMARK   44  A    between atoms: _102  and  _104
REMARK   45  A    between atoms: _104  and  _105
REMARK   46  A    between atoms: _104  and  _107
REMARK   47  A    between atoms: _107  and  _108
REMARK   48  A    between atoms: _110  and  _112
REMARK   49  A    between atoms: _112  and  _113
REMARK   50  A    between atoms: _112  and  _115
REMARK   51  A    between atoms: _115  and  _116
REMARK   52  A    between atoms: _126  and  _128
REMARK   53  A    between atoms: _128  and  _129
REMARK   54  A    between atoms: _128  and  _131
REMARK   55  A    between atoms: _134  and  _136
REMARK   56  A    between atoms: _136  and  _137
REMARK   57  A    between atoms: _136  and  _139
REMARK   58  A    between atoms: _139  and  _140
REMARK   59  A    between atoms: _145  and  _146
REMARK   60  A    between atoms: _148  and  _150
REMARK   61  A    between atoms: _150  and  _151
REMARK   62  A    between atoms: _150  and  _153
REMARK   63  A    between atoms: _153  and  _154
REMARK   64  A    between atoms: _156  and  _158
REMARK   65  A    between atoms: _158  and  _159
REMARK   66  A    between atoms: _158  and  _161
REMARK   67  A    between atoms: _161  and  _162
REMARK   68  A    between atoms: _162  and  _163
REMARK   69  A    between atoms: _166  and  _168
REMARK   70  A    between atoms: _168  and  _169
REMARK   71  A    between atoms: _168  and  _171
REMARK   72  A    between atoms: _171  and  _172
REMARK   73  A    between atoms: _175  and  _177
REMARK   74  A    between atoms: _177  and  _178
REMARK   75  A    between atoms: _177  and  _180
REMARK   76  A    between atoms: _180  and  _181
REMARK   77  A    between atoms: _181  and  _182
REMARK   78  A    between atoms: _187  and  _189
REMARK   79  A    between atoms: _189  and  _190
REMARK   80  A    between atoms: _189  and  _192
REMARK   81  A    between atoms: _192  and  _193
REMARK   82  A    between atoms: _193  and  _194
REMARK   83  A    between atoms: _199  and  _201
REMARK   84  A    between atoms: _201  and  _202
REMARK   85  A    between atoms: _201  and  _204
REMARK   86  A    between atoms: _204  and  _205
REMARK   87  A    between atoms: _210  and  _212
REMARK   88  A    between atoms: _212  and  _213
REMARK   89  A    between atoms: _212  and  _215
REMARK   90  A    between atoms: _215  and  _216
REMARK   91  A    between atoms: _221  and  _222
REMARK   92  A    between atoms: _224  and  _226
REMARK   93  A    between atoms: _226  and  _227
REMARK   94  A    between atoms: _226  and  _229
REMARK   95  A    between atoms: _229  and  _230
REMARK   96  A    between atoms: _232  and  _234
REMARK   97  A    between atoms: _241  and  _242
REMARK   98  A    between atoms: _247  and  _248
REMARK   99  A    between atoms: _253  and  _255
REMARK  100  A    between atoms: _255  and  _256
REMARK  101  A    between atoms: _255  and  _258
REMARK  102  A    between atoms: _258  and  _259
REMARK  103  A    between atoms: _259  and  _260
REMARK  104  A    between atoms: _264  and  _265
REMARK  105  A    between atoms: _270  and  _272
REMARK  106  A    between atoms: _272  and  _273
REMARK  107  A    between atoms: _272  and  _275
REMARK  108  A    between atoms: _275  and  _276
REMARK  109  A    between atoms: _281  and  _282
REMARK  110  A    between atoms: _284  and  _286
REMARK  111  A    between atoms: _286  and  _287
REMARK  112  A    between atoms: _286  and  _289
REMARK  113  A    between atoms: _289  and  _290
REMARK  114  A    between atoms: _293  and  _295
REMARK  115  A    between atoms: _295  and  _296
REMARK  116  A    between atoms: _295  and  _298
REMARK  117  A    between atoms: _298  and  _299
REMARK  118  A    between atoms: _302  and  _304
REMARK  119  A    between atoms: _304  and  _305
REMARK  120  A    between atoms: _304  and  _307
REMARK  121  A    between atoms: _310  and  _312
REMARK  122  A    between atoms: _312  and  _313
REMARK  123  A    between atoms: _312  and  _315
REMARK  124  A    between atoms: _315  and  _316
REMARK  125  A    between atoms: _321  and  _323
REMARK  126  A    between atoms: _323  and  _324
REMARK  127  A    between atoms: _323  and  _326
REMARK  128  A    between atoms: _326  and  _327
REMARK  129  A    between atoms: _330  and  _332
REMARK  130  A    between atoms: _332  and  _333
REMARK  131  A    between atoms: _332  and  _335
REMARK  132  A    between atoms: _335  and  _336
REMARK  133  A    between atoms: _336  and  _337
REMARK  134  A    between atoms: _342  and  _344
REMARK  135  A    between atoms: _344  and  _345
REMARK  136  A    between atoms: _344  and  _347
REMARK  137  A    between atoms: _347  and  _348
REMARK  138  A    between atoms: _353  and  _354
REMARK  139  A    between atoms: _356  and  _358
REMARK  140  A    between atoms: _358  and  _359
REMARK  141  A    between atoms: _358  and  _361
REMARK  142  A    between atoms: _361  and  _362
REMARK  143  A    between atoms: _362  and  _363
REMARK  144  A    between atoms: _366  and  _368
REMARK  145  A    between atoms: _368  and  _369
REMARK  146  A    between atoms: _368  and  _371
REMARK  147  A    between atoms: _371  and  _372
REMARK  148  A    between atoms: _372  and  _373
REMARK  149  A    between atoms: _378  and  _380
REMARK  150  A    between atoms: _380  and  _381
REMARK  151  A    between atoms: _380  and  _383
REMARK  152  A    between atoms: _383  and  _384
REMARK  153  A    between atoms: _384  and  _385
REMARK  154  A    between atoms: _390  and  _392
REMARK  155  A    between atoms: _392  and  _393
REMARK  156  A    between atoms: _392  and  _395
REMARK  157  A    between atoms: _395  and  _396
REMARK  158  A    between atoms: _396  and  _397
REMARK  159  A    between atoms: _397  and  _398
REMARK  160  A    between atoms: _407  and  _409
REMARK  161  A    between atoms: _409  and  _410
REMARK  162  A    between atoms: _409  and  _412
REMARK  163  A    between atoms: _412  and  _413
REMARK  164  A    between atoms: _416  and  _418
REMARK  165  A    between atoms: _418  and  _419
REMARK  166  A    between atoms: _418  and  _421
REMARK  167  A    between atoms: _421  and  _422
REMARK  168  A    between atoms: _428  and  _430
REMARK  169  A    between atoms: _430  and  _431
REMARK  170  A    between atoms: _430  and  _433
REMARK  171  A    between atoms: _433  and  _434
REMARK  172  A    between atoms: _434  and  _435
REMARK  173  A    between atoms: _435  and  _436
REMARK  174  A    between atoms: _445  and  _447
REMARK  175  A    between atoms: _447  and  _448
REMARK  176  A    between atoms: _447  and  _450
REMARK  177  A    between atoms: _450  and  _451
REMARK  178  A    between atoms: _454  and  _456
REMARK  179  A    between atoms: _456  and  _457
REMARK  180  A    between atoms: _456  and  _459
REMARK  181  A    between atoms: _459  and  _460
REMARK  182  A    between atoms: _463  and  _464
REMARK  183  A    between atoms: _469  and  _471
REMARK  184  A    between atoms: _471  and  _472
REMARK  185  A    between atoms: _471  and  _474
REMARK  186  A    between atoms: _474  and  _475
REMARK  187  A    between atoms: _478  and  _480
REMARK  188  A    between atoms: _480  and  _481
REMARK  189  A    between atoms: _484  and  _486
REMARK  190  A    between atoms: _486  and  _487
REMARK  191  A    between atoms: _486  and  _489
REMARK  192  A    between atoms: _492  and  _494
REMARK  193  A    between atoms: _494  and  _495
REMARK  194  A    between atoms: _494  and  _497
REMARK  195  A    between atoms: _500  and  _502
REMARK  196  A    between atoms: _502  and  _503
REMARK  197  A    between atoms: _502  and  _505
REMARK  198  A    between atoms: _505  and  _506
REMARK  199  A    between atoms: _509  and  _511
REMARK  200  A    between atoms: _511  and  _512
REMARK  201  A    between atoms: _511  and  _514
REMARK  202  A    between atoms: _517  and  _519
REMARK  203  A    between atoms: _519  and  _520
REMARK  204  A    between atoms: _519  and  _522
REMARK  205  A    between atoms: _522  and  _523
REMARK  206  A    between atoms: _523  and  _524
REMARK  207  A    between atoms: _526  and  _528
REMARK  208  A    between atoms: _528  and  _529
REMARK  209  A    between atoms: _528  and  _531
REMARK  210  A    between atoms: _531  and  _532
REMARK  211  A    between atoms: _538  and  _540
REMARK  212  A    between atoms: _540  and  _541
REMARK  213  A    between atoms: _540  and  _543
REMARK  214  A    between atoms: _543  and  _544
REMARK  215  A    between atoms: _548  and  _549
REMARK  216  A    between atoms: _554  and  _556
REMARK  217  A    between atoms: _556  and  _557
REMARK  218  A    between atoms: _560  and  _562
REMARK  219  A    between atoms: _562  and  _563
REMARK  220  A    between atoms: _562  and  _565
REMARK  221  A    between atoms: _565  and  _566
REMARK                            x       y       z     vdW  Elec       q    Type
REMARK                         _______ _______ _______ _____ _____    ______ ____
ROOT
ATOM      1  O   HOH     1     -15.538  22.082  -6.674  0.00  0.00    +0.000 OA
ENDROOT
TORSDOF 0
REMARK  Name = ../refined-set-2016/2bys/2bys_pocket.pdb
REMARK  221 active torsions:
REMARK  status: ('A' for Active; 'I' for Inactive)
REMARK    1  A    between atoms: _1  and  _3
REMARK    2  A    between atoms: _3  and  _4
REMARK    3  A    between atoms: _3  and  _6
REMARK    4  A    between atoms: _6  and  _7
REMARK    5  A    between atoms: _10  and  _12
REMARK    6  A    between atoms: _12  and  _13
REMARK    7  A    between atoms: _12  and  _15
REMARK    8  A    between atoms: _15  and  _16
REMARK    9  A    between atoms: _19  and  _21
REMARK   10  A    between atoms: _21  and  _22
REMARK   11  A    between atoms: _21  and  _24
REMARK   12  A    between atoms: _24  and  _25
REMARK   13  A    between atoms: _28  and  _30
REMARK   14  A    between atoms: _30  and  _31
REMARK   15  A    between atoms: _34  and  _36
REMARK   16  A    between atoms: _36  and  _37
REMARK   17  A    between atoms: _36  and  _39
REMARK   18  A    between atoms: _39  and  _40
REMARK   19  A    between atoms: _45  and  _46
REMARK   20  A    between atoms: _48  and  _50
REMARK   21  A    between atoms: _50  and  _51
REMARK   22  A    between atoms: _50  and  _53
REMARK   23  A    between atoms: _53  and  _54
REMARK   24  A    between atoms: _56  and  _58
REMARK   25  A    between atoms: _58  and  _59
REMARK   26  A    between atoms: _58  and  _61
REMARK   27  A    between atoms: _61  and  _62
REMARK   28  A    between atoms: _64  and  _66
REMARK   29  A    between atoms: _66  and  _67
REMARK   30  A    between atoms: _66  and  _69
REMARK   31  A    between atoms: _72  and  _74
REMARK   32  A    between atoms: _74  and  _75
REMARK   33  A    between atoms: _74  and  _77
REMARK   34  A    between atoms: _77  and  _78
REMARK   35  A    between atoms: _78  and  _79
REMARK   36  A    between atoms: _79  and  _80
REMARK   37  A    between atoms: _80  and  _81
REMARK   38  A    between atoms: _85  and  _87
REMARK   39  A    between atoms: _87  and  _88
REMARK   40  A    between atoms: _87  and  _90
REMARK   41  A    between atoms: _90  and  _91
REMARK   42  A    between atoms: _97  and  _99
REMARK   43  A    between atoms: _99  and  _100
REMARK   44  A    between atoms: _102  and  _104
REMARK   45  A    between atoms: _104  and  _105
REMARK   46  A    between atoms: _104  and  _107
REMARK   47  A    between atoms: _107  and  _108
REMARK   48  A    between atoms: _110  and  _112
REMARK   49  A    between atoms: _112  and  _113
REMARK   50  A    between atoms: _112  and  _115
REMARK   51  A    between atoms: _115  and  _116
REMARK   52  A    between atoms: _126  and  _128
REMARK   53  A    between atoms: _128  and  _129
REMARK   54  A    between atoms: _128  and  _131
REMARK   55  A    between atoms: _134  and  _136
REMARK   56  A    between atoms: _136  and  _137
REMARK   57  A    between atoms: _136  and  _139
REMARK   58  A    between atoms: _139  and  _140
REMARK   59  A    between atoms: _145  and  _146
REMARK   60  A    between atoms: _148  and  _150
REMARK   61  A    between atoms: _150  and  _151
REMARK   62  A    between atoms: _150  and  _153
REMARK   63  A    between atoms: _153  and  _154
REMARK   64  A    between atoms: _156  and  _158
REMARK   65  A    between atoms: _158  and  _159
REMARK   66  A    between atoms: _158  and  _161
REMARK   67  A    between atoms: _161  and  _162
REMARK   68  A    between atoms: _162  and  _163
REMARK   69  A    between atoms: _166  and  _168
REMARK   70  A    between atoms: _168  and  _169
REMARK   71  A    between atoms: _168  and  _171
REMARK   72  A    between atoms: _171  and  _172
REMARK   73  A    between atoms: _175  and  _177
REMARK   74  A    between atoms: _177  and  _178
REMARK   75  A    between atoms: _177  and  _180
REMARK   76  A    between atoms: _180  and  _181
REMARK   77  A    between atoms: _181  and  _182
REMARK   78  A    between atoms: _187  and  _189
REMARK   79  A    between atoms: _189  and  _190
REMARK   80  A    between atoms: _189  and  _192
REMARK   81  A    between atoms: _192  and  _193
REMARK   82  A    between atoms: _193  and  _194
REMARK   83  A    between atoms: _199  and  _201
REMARK   84  A    between atoms: _201  and  _202
REMARK   85  A    between atoms: _201  and  _204
REMARK   86  A    between atoms: _204  and  _205
REMARK   87  A    between atoms: _210  and  _212
REMARK   88  A    between atoms: _212  and  _213
REMARK   89  A    between atoms: _212  and  _215
REMARK   90  A    between atoms: _215  and  _216
REMARK   91  A    between atoms: _221  and  _222
REMARK   92  A    between atoms: _224  and  _226
REMARK   93  A    between atoms: _226  and  _227
REMARK   94  A    between atoms: _226  and  _229
REMARK   95  A    between atoms: _229  and  _230
REMARK   96  A    between atoms: _232  and  _234
REMARK   97  A    between atoms: _241  and  _242
REMARK   98  A    between atoms: _247  and  _248
REMARK   99  A    between atoms: _253  and  _255
REMARK  100  A    between atoms: _255  and  _256
REMARK  101  A    between atoms: _255  and  _258
REMARK  102  A    between atoms: _258  and  _259
REMARK  103  A    between atoms: _259  and  _260
REMARK  104  A    between atoms: _264  and  _265
REMARK  105  A    between atoms: _270  and  _272
REMARK  106  A    between atoms: _272  and  _273
REMARK  107  A    between atoms: _272  and  _275
REMARK  108  A    between atoms: _275  and  _276
REMARK  109  A    between atoms: _281  and  _282
REMARK  110  A    between atoms: _284  and  _286
REMARK  111  A    between atoms: _286  and  _287
REMARK  112  A    between atoms: _286  and  _289
REMARK  113  A    between atoms: _289  and  _290
REMARK  114  A    between atoms: _293  and  _295
REMARK  115  A    between atoms: _295  and  _296
REMARK  116  A    between atoms: _295  and  _298
REMARK  117  A    between atoms: _298  and  _299
REMARK  118  A    between atoms: _302  and  _304
REMARK  119  A    between atoms: _304  and  _305
REMARK  120  A    between atoms: _304  and  _307
REMARK  121  A    between atoms: _310  and  _312
REMARK  122  A    between atoms: _312  and  _313
REMARK  123  A    between atoms: _312  and  _315
REMARK  124  A    between atoms: _315  and  _316
REMARK  125  A    between atoms: _321  and  _323
REMARK  126  A    between atoms: _323  and  _324
REMARK  127  A    between atoms: _323  and  _326
REMARK  128  A    between atoms: _326  and  _327
REMARK  129  A    between atoms: _330  and  _332
REMARK  130  A    between atoms: _332  and  _333
REMARK  131  A    between atoms: _332  and  _335
REMARK  132  A    between atoms: _335  and  _336
REMARK  133  A    between atoms: _336  and  _337
REMARK  134  A    between atoms: _342  and  _344
REMARK  135  A    between atoms: _344  and  _345
REMARK  136  A    between atoms: _344  and  _347
REMARK  137  A    between atoms: _347  and  _348
REMARK  138  A    between atoms: _353  and  _354
REMARK  139  A    between atoms: _356  and  _358
REMARK  140  A    between atoms: _358  and  _359
REMARK  141  A    between atoms: _358  and  _361
REMARK  142  A    between atoms: _361  and  _362
REMARK  143  A    between atoms: _362  and  _363
REMARK  144  A    between atoms: _366  and  _368
REMARK  145  A    between atoms: _368  and  _369
REMARK  146  A    between atoms: _368  and  _371
REMARK  147  A    between atoms: _371  and  _372
REMARK  148  A    between atoms: _372  and  _373
REMARK  149  A    between atoms: _378  and  _380
REMARK  150  A    between atoms: _380  and  _381
REMARK  151  A    between atoms: _380  and  _383
REMARK  152  A    between atoms: _383  and  _384
REMARK  153  A    between atoms: _384  and  _385
REMARK  154  A    between atoms: _390  and  _392
REMARK  155  A    between atoms: _392  and  _393
REMARK  156  A    between atoms: _392  and  _395
REMARK  157  A    between atoms: _395  and  _396
REMARK  158  A    between atoms: _396  and  _397
REMARK  159  A    between atoms: _397  and  _398
REMARK  160  A    between atoms: _407  and  _409
REMARK  161  A    between atoms: _409  and  _410
REMARK  162  A    between atoms: _409  and  _412
REMARK  163  A    between atoms: _412  and  _413
REMARK  164  A    between atoms: _416  and  _418
REMARK  165  A    between atoms: _418  and  _419
REMARK  166  A    between atoms: _418  and  _421
REMARK  167  A    between atoms: _421  and  _422
REMARK  168  A    between atoms: _428  and  _430
REMARK  169  A    between atoms: _430  and  _431
REMARK  170  A    between atoms: _430  and  _433
REMARK  171  A    between atoms: _433  and  _434
REMARK  172  A    between atoms: _434  and  _435
REMARK  173  A    between atoms: _435  and  _436
REMARK  174  A    between atoms: _445  and  _447
REMARK  175  A    between atoms: _447  and  _448
REMARK  176  A    between atoms: _447  and  _450
REMARK  177  A    between atoms: _450  and  _451
REMARK  178  A    between atoms: _454  and  _456
REMARK  179  A    between atoms: _456  and  _457
REMARK  180  A    between atoms: _456  and  _459
REMARK  181  A    between atoms: _459  and  _460
REMARK  182  A    between atoms: _463  and  _464
REMARK  183  A    between atoms: _469  and  _471
REMARK  184  A    between atoms: _471  and  _472
REMARK  185  A    between atoms: _471  and  _474
REMARK  186  A    between atoms: _474  and  _475
REMARK  187  A    between atoms: _478  and  _480
REMARK  188  A    between atoms: _480  and  _481
REMARK  189  A    between atoms: _484  and  _486
REMARK  190  A    between atoms: _486  and  _487
REMARK  191  A    between atoms: _486  and  _489
REMARK  192  A    between atoms: _492  and  _494
REMARK  193  A    between atoms: _494  and  _495
REMARK  194  A    between atoms: _494  and  _497
REMARK  195  A    between atoms: _500  and  _502
REMARK  196  A    between atoms: _502  and  _503
REMARK  197  A    between atoms: _502  and  _505
REMARK  198  A    between atoms: _505  and  _506
REMARK  199  A    between atoms: _509  and  _511
REMARK  200  A    between atoms: _511  and  _512
REMARK  201  A    between atoms: _511  and  _514
REMARK  202  A    between atoms: _517  and  _519
REMARK  203  A    between atoms: _519  and  _520
REMARK  204  A    between atoms: _519  and  _522
REMARK  205  A    between atoms: _522  and  _523
REMARK  206  A    between atoms: _523  and  _524
REMARK  207  A    between atoms: _526  and  _528
REMARK  208  A    between atoms: _528  and  _529
REMARK  209  A    between atoms: _528  and  _531
REMARK  210  A    between atoms: _531  and  _532
REMARK  211  A    between atoms: _538  and  _540
REMARK  212  A    between atoms: _540  and  _541
REMARK  213  A    between atoms: _540  and  _543
REMARK  214  A    between atoms: _543  and  _544
REMARK  215  A    between atoms: _548  and  _549
REMARK  216  A    between atoms: _554  and  _556
REMARK  217  A    between atoms: _556  and  _557
REMARK  218  A    between atoms: _560  and  _562
REMARK  219  A    between atoms: _562  and  _563
REMARK  220  A    between atoms: _562  and  _565
REMARK  221  A    between atoms: _565  and  _566
REMARK                            x       y       z     vdW  Elec       q    Type
REMARK                         _______ _______ _______ _____ _____    ______ ____
ROOT
ATOM      1  O   HOH     1      -9.805  16.088  -1.899  0.00  0.00    +0.000 OA
ENDROOT
TORSDOF 0
REMARK  Name = ../refined-set-2016/2bys/2bys_pocket.pdb
REMARK  221 active torsions:
REMARK  status: ('A' for Active; 'I' for Inactive)
REMARK    1  A    between atoms: _1  and  _3
REMARK    2  A    between atoms: _3  and  _4
REMARK    3  A    between atoms: _3  and  _6
REMARK    4  A    between atoms: _6  and  _7
REMARK    5  A    between atoms: _10  and  _12
REMARK    6  A    between atoms: _12  and  _13
REMARK    7  A    between atoms: _12  and  _15
REMARK    8  A    between atoms: _15  and  _16
REMARK    9  A    between atoms: _19  and  _21
REMARK   10  A    between atoms: _21  and  _22
REMARK   11  A    between atoms: _21  and  _24
REMARK   12  A    between atoms: _24  and  _25
REMARK   13  A    between atoms: _28  and  _30
REMARK   14  A    between atoms: _30  and  _31
REMARK   15  A    between atoms: _34  and  _36
REMARK   16  A    between atoms: _36  and  _37
REMARK   17  A    between atoms: _36  and  _39
REMARK   18  A    between atoms: _39  and  _40
REMARK   19  A    between atoms: _45  and  _46
REMARK   20  A    between atoms: _48  and  _50
REMARK   21  A    between atoms: _50  and  _51
REMARK   22  A    between atoms: _50  and  _53
REMARK   23  A    between atoms: _53  and  _54
REMARK   24  A    between atoms: _56  and  _58
REMARK   25  A    between atoms: _58  and  _59
REMARK   26  A    between atoms: _58  and  _61
REMARK   27  A    between atoms: _61  and  _62
REMARK   28  A    between atoms: _64  and  _66
REMARK   29  A    between atoms: _66  and  _67
REMARK   30  A    between atoms: _66  and  _69
REMARK   31  A    between atoms: _72  and  _74
REMARK   32  A    between atoms: _74  and  _75
REMARK   33  A    between atoms: _74  and  _77
REMARK   34  A    between atoms: _77  and  _78
REMARK   35  A    between atoms: _78  and  _79
REMARK   36  A    between atoms: _79  and  _80
REMARK   37  A    between atoms: _80  and  _81
REMARK   38  A    between atoms: _85  and  _87
REMARK   39  A    between atoms: _87  and  _88
REMARK   40  A    between atoms: _87  and  _90
REMARK   41  A    between atoms: _90  and  _91
REMARK   42  A    between atoms: _97  and  _99
REMARK   43  A    between atoms: _99  and  _100
REMARK   44  A    between atoms: _102  and  _104
REMARK   45  A    between atoms: _104  and  _105
REMARK   46  A    between atoms: _104  and  _107
REMARK   47  A    between atoms: _107  and  _108
REMARK   48  A    between atoms: _110  and  _112
REMARK   49  A    between atoms: _112  and  _113
REMARK   50  A    between atoms: _112  and  _115
REMARK   51  A    between atoms: _115  and  _116
REMARK   52  A    between atoms: _126  and  _128
REMARK   53  A    between atoms: _128  and  _129
REMARK   54  A    between atoms: _128  and  _131
REMARK   55  A    between atoms: _134  and  _136
REMARK   56  A    between atoms: _136  and  _137
REMARK   57  A    between atoms: _136  and  _139
REMARK   58  A    between atoms: _139  and  _140
REMARK   59  A    between atoms: _145  and  _146
REMARK   60  A    between atoms: _148  and  _150
REMARK   61  A    between atoms: _150  and  _151
REMARK   62  A    between atoms: _150  and  _153
REMARK   63  A    between atoms: _153  and  _154
REMARK   64  A    between atoms: _156  and  _158
REMARK   65  A    between atoms: _158  and  _159
REMARK   66  A    between atoms: _158  and  _161
REMARK   67  A    between atoms: _161  and  _162
REMARK   68  A    between atoms: _162  and  _163
REMARK   69  A    between atoms: _166  and  _168
REMARK   70  A    between atoms: _168  and  _169
REMARK   71  A    between atoms: _168  and  _171
REMARK   72  A    between atoms: _171  and  _172
REMARK   73  A    between atoms: _175  and  _177
REMARK   74  A    between atoms: _177  and  _178
REMARK   75  A    between atoms: _177  and  _180
REMARK   76  A    between atoms: _180  and  _181
REMARK   77  A    between atoms: _181  and  _182
REMARK   78  A    between atoms: _187  and  _189
REMARK   79  A    between atoms: _189  and  _190
REMARK   80  A    between atoms: _189  and  _192
REMARK   81  A    between atoms: _192  and  _193
REMARK   82  A    between atoms: _193  and  _194
REMARK   83  A    between atoms: _199  and  _201
REMARK   84  A    between atoms: _201  and  _202
REMARK   85  A    between atoms: _201  and  _204
REMARK   86  A    between atoms: _204  and  _205
REMARK   87  A    between atoms: _210  and  _212
REMARK   88  A    between atoms: _212  and  _213
REMARK   89  A    between atoms: _212  and  _215
REMARK   90  A    between atoms: _215  and  _216
REMARK   91  A    between atoms: _221  and  _222
REMARK   92  A    between atoms: _224  and  _226
REMARK   93  A    between atoms: _226  and  _227
REMARK   94  A    between atoms: _226  and  _229
REMARK   95  A    between atoms: _229  and  _230
REMARK   96  A    between atoms: _232  and  _234
REMARK   97  A    between atoms: _241  and  _242
REMARK   98  A    between atoms: _247  and  _248
REMARK   99  A    between atoms: _253  and  _255
REMARK  100  A    between atoms: _255  and  _256
REMARK  101  A    between atoms: _255  and  _258
REMARK  102  A    between atoms: _258  and  _259
REMARK  103  A    between atoms: _259  and  _260
REMARK  104  A    between atoms: _264  and  _265
REMARK  105  A    between atoms: _270  and  _272
REMARK  106  A    between atoms: _272  and  _273
REMARK  107  A    between atoms: _272  and  _275
REMARK  108  A    between atoms: _275  and  _276
REMARK  109  A    between atoms: _281  and  _282
REMARK  110  A    between atoms: _284  and  _286
REMARK  111  A    between atoms: _286  and  _287
REMARK  112  A    between atoms: _286  and  _289
REMARK  113  A    between atoms: _289  and  _290
REMARK  114  A    between atoms: _293  and  _295
REMARK  115  A    between atoms: _295  and  _296
REMARK  116  A    between atoms: _295  and  _298
REMARK  117  A    between atoms: _298  and  _299
REMARK  118  A    between atoms: _302  and  _304
REMARK  119  A    between atoms: _304  and  _305
REMARK  120  A    between atoms: _304  and  _307
REMARK  121  A    between atoms: _310  and  _312
REMARK  122  A    between atoms: _312  and  _313
REMARK  123  A    between atoms: _312  and  _315
REMARK  124  A    between atoms: _315  and  _316
REMARK  125  A    between atoms: _321  and  _323
REMARK  126  A    between atoms: _323  and  _324
REMARK  127  A    between atoms: _323  and  _326
REMARK  128  A    between atoms: _326  and  _327
REMARK  129  A    between atoms: _330  and  _332
REMARK  130  A    between atoms: _332  and  _333
REMARK  131  A    between atoms: _332  and  _335
REMARK  132  A    between atoms: _335  and  _336
REMARK  133  A    between atoms: _336  and  _337
REMARK  134  A    between atoms: _342  and  _344
REMARK  135  A    between atoms: _344  and  _345
REMARK  136  A    between atoms: _344  and  _347
REMARK  137  A    between atoms: _347  and  _348
REMARK  138  A    between atoms: _353  and  _354
REMARK  139  A    between atoms: _356  and  _358
REMARK  140  A    between atoms: _358  and  _359
REMARK  141  A    between atoms: _358  and  _361
REMARK  142  A    between atoms: _361  and  _362
REMARK  143  A    between atoms: _362  and  _363
REMARK  144  A    between atoms: _366  and  _368
REMARK  145  A    between atoms: _368  and  _369
REMARK  146  A    between atoms: _368  and  _371
REMARK  147  A    between atoms: _371  and  _372
REMARK  148  A    between atoms: _372  and  _373
REMARK  149  A    between atoms: _378  and  _380
REMARK  150  A    between atoms: _380  and  _381
REMARK  151  A    between atoms: _380  and  _383
REMARK  152  A    between atoms: _383  and  _384
REMARK  153  A    between atoms: _384  and  _385
REMARK  154  A    between atoms: _390  and  _392
REMARK  155  A    between atoms: _392  and  _393
REMARK  156  A    between atoms: _392  and  _395
REMARK  157  A    between atoms: _395  and  _396
REMARK  158  A    between atoms: _396  and  _397
REMARK  159  A    between atoms: _397  and  _398
REMARK  160  A    between atoms: _407  and  _409
REMARK  161  A    between atoms: _409  and  _410
REMARK  162  A    between atoms: _409  and  _412
REMARK  163  A    between atoms: _412  and  _413
REMARK  164  A    between atoms: _416  and  _418
REMARK  165  A    between atoms: _418  and  _419
REMARK  166  A    between atoms: _418  and  _421
REMARK  167  A    between atoms: _421  and  _422
REMARK  168  A    between atoms: _428  and  _430
REMARK  169  A    between atoms: _430  and  _431
REMARK  170  A    between atoms: _430  and  _433
REMARK  171  A    between atoms: _433  and  _434
REMARK  172  A    between atoms: _434  and  _435
REMARK  173  A    between atoms: _435  and  _436
REMARK  174  A    between atoms: _445  and  _447
REMARK  175  A    between atoms: _447  and  _448
REMARK  176  A    between atoms: _447  and  _450
REMARK  177  A    between atoms: _450  and  _451
REMARK  178  A    between atoms: _454  and  _456
REMARK  179  A    between atoms: _456  and  _457
REMARK  180  A    between atoms: _456  and  _459
REMARK  181  A    between atoms: _459  and  _460
REMARK  182  A    between atoms: _463  and  _464
REMARK  183  A    between atoms: _469  and  _471
REMARK  184  A    between atoms: _471  and  _472
REMARK  185  A    between atoms: _471  and  _474
REMARK  186  A    between atoms: _474  and  _475
REMARK  187  A    between atoms: _478  and  _480
REMARK  188  A    between atoms: _480  and  _481
REMARK  189  A    between atoms: _484  and  _486
REMARK  190  A    between atoms: _486  and  _487
REMARK  191  A    between atoms: _486  and  _489
REMARK  192  A    between atoms: _492  and  _494
REMARK  193  A    between atoms: _494  and  _495
REMARK  194  A    between atoms: _494  and  _497
REMARK  195  A    between atoms: _500  and  _502
REMARK  196  A    between atoms: _502  and  _503
REMARK  197  A    between atoms: _502  and  _505
REMARK  198  A    between atoms: _505  and  _506
REMARK  199  A    between atoms: _509  and  _511
REMARK  200  A    between atoms: _511  and  _512
REMARK  201  A    between atoms: _511  and  _514
REMARK  202  A    between atoms: _517  and  _519
REMARK  203  A    between atoms: _519  and  _520
REMARK  204  A    between atoms: _519  and  _522
REMARK  205  A    between atoms: _522  and  _523
REMARK  206  A    between atoms: _523  and  _524
REMARK  207  A    between atoms: _526  and  _528
REMARK  208  A    between atoms: _528  and  _529
REMARK  209  A    between atoms: _528  and  _531
REMARK  210  A    between atoms: _531  and  _532
REMARK  211  A    between atoms: _538  and  _540
REMARK  212  A    between atoms: _540  and  _541
REMARK  213  A    between atoms: _540  and  _543
REMARK  214  A    between atoms: _543  and  _544
REMARK  215  A    between atoms: _548  and  _549
REMARK  216  A    between atoms: _554  and  _556
REMARK  217  A    between atoms: _556  and  _557
REMARK  218  A    between atoms: _560  and  _562
REMARK  219  A    between atoms: _562  and  _563
REMARK  220  A    between atoms: _562  and  _565
REMARK  221  A    between atoms: _565  and  _566
REMARK                            x       y       z     vdW  Elec       q    Type
REMARK                         _______ _______ _______ _____ _____    ______ ____
ROOT
ATOM      1  O   HOH     1      -5.577  15.404  -4.941  0.00  0.00    +0.000 OA
ENDROOT
TORSDOF 0
REMARK  Name = ../refined-set-2016/2bys/2bys_pocket.pdb
REMARK  221 active torsions:
REMARK  status: ('A' for Active; 'I' for Inactive)
REMARK    1  A    between atoms: _1  and  _3
REMARK    2  A    between atoms: _3  and  _4
REMARK    3  A    between atoms: _3  and  _6
REMARK    4  A    between atoms: _6  and  _7
REMARK    5  A    between atoms: _10  and  _12
REMARK    6  A    between atoms: _12  and  _13
REMARK    7  A    between atoms: _12  and  _15
REMARK    8  A    between atoms: _15  and  _16
REMARK    9  A    between atoms: _19  and  _21
REMARK   10  A    between atoms: _21  and  _22
REMARK   11  A    between atoms: _21  and  _24
REMARK   12  A    between atoms: _24  and  _25
REMARK   13  A    between atoms: _28  and  _30
REMARK   14  A    between atoms: _30  and  _31
REMARK   15  A    between atoms: _34  and  _36
REMARK   16  A    between atoms: _36  and  _37
REMARK   17  A    between atoms: _36  and  _39
REMARK   18  A    between atoms: _39  and  _40
REMARK   19  A    between atoms: _45  and  _46
REMARK   20  A    between atoms: _48  and  _50
REMARK   21  A    between atoms: _50  and  _51
REMARK   22  A    between atoms: _50  and  _53
REMARK   23  A    between atoms: _53  and  _54
REMARK   24  A    between atoms: _56  and  _58
REMARK   25  A    between atoms: _58  and  _59
REMARK   26  A    between atoms: _58  and  _61
REMARK   27  A    between atoms: _61  and  _62
REMARK   28  A    between atoms: _64  and  _66
REMARK   29  A    between atoms: _66  and  _67
REMARK   30  A    between atoms: _66  and  _69
REMARK   31  A    between atoms: _72  and  _74
REMARK   32  A    between atoms: _74  and  _75
REMARK   33  A    between atoms: _74  and  _77
REMARK   34  A    between atoms: _77  and  _78
REMARK   35  A    between atoms: _78  and  _79
REMARK   36  A    between atoms: _79  and  _80
REMARK   37  A    between atoms: _80  and  _81
REMARK   38  A    between atoms: _85  and  _87
REMARK   39  A    between atoms: _87  and  _88
REMARK   40  A    between atoms: _87  and  _90
REMARK   41  A    between atoms: _90  and  _91
REMARK   42  A    between atoms: _97  and  _99
REMARK   43  A    between atoms: _99  and  _100
REMARK   44  A    between atoms: _102  and  _104
REMARK   45  A    between atoms: _104  and  _105
REMARK   46  A    between atoms: _104  and  _107
REMARK   47  A    between atoms: _107  and  _108
REMARK   48  A    between atoms: _110  and  _112
REMARK   49  A    between atoms: _112  and  _113
REMARK   50  A    between atoms: _112  and  _115
REMARK   51  A    between atoms: _115  and  _116
REMARK   52  A    between atoms: _126  and  _128
REMARK   53  A    between atoms: _128  and  _129
REMARK   54  A    between atoms: _128  and  _131
REMARK   55  A    between atoms: _134  and  _136
REMARK   56  A    between atoms: _136  and  _137
REMARK   57  A    between atoms: _136  and  _139
REMARK   58  A    between atoms: _139  and  _140
REMARK   59  A    between atoms: _145  and  _146
REMARK   60  A    between atoms: _148  and  _150
REMARK   61  A    between atoms: _150  and  _151
REMARK   62  A    between atoms: _150  and  _153
REMARK   63  A    between atoms: _153  and  _154
REMARK   64  A    between atoms: _156  and  _158
REMARK   65  A    between atoms: _158  and  _159
REMARK   66  A    between atoms: _158  and  _161
REMARK   67  A    between atoms: _161  and  _162
REMARK   68  A    between atoms: _162  and  _163
REMARK   69  A    between atoms: _166  and  _168
REMARK   70  A    between atoms: _168  and  _169
REMARK   71  A    between atoms: _168  and  _171
REMARK   72  A    between atoms: _171  and  _172
REMARK   73  A    between atoms: _175  and  _177
REMARK   74  A    between atoms: _177  and  _178
REMARK   75  A    between atoms: _177  and  _180
REMARK   76  A    between atoms: _180  and  _181
REMARK   77  A    between atoms: _181  and  _182
REMARK   78  A    between atoms: _187  and  _189
REMARK   79  A    between atoms: _189  and  _190
REMARK   80  A    between atoms: _189  and  _192
REMARK   81  A    between atoms: _192  and  _193
REMARK   82  A    between atoms: _193  and  _194
REMARK   83  A    between atoms: _199  and  _201
REMARK   84  A    between atoms: _201  and  _202
REMARK   85  A    between atoms: _201  and  _204
REMARK   86  A    between atoms: _204  and  _205
REMARK   87  A    between atoms: _210  and  _212
REMARK   88  A    between atoms: _212  and  _213
REMARK   89  A    between atoms: _212  and  _215
REMARK   90  A    between atoms: _215  and  _216
REMARK   91  A    between atoms: _221  and  _222
REMARK   92  A    between atoms: _224  and  _226
REMARK   93  A    between atoms: _226  and  _227
REMARK   94  A    between atoms: _226  and  _229
REMARK   95  A    between atoms: _229  and  _230
REMARK   96  A    between atoms: _232  and  _234
REMARK   97  A    between atoms: _241  and  _242
REMARK   98  A    between atoms: _247  and  _248
REMARK   99  A    between atoms: _253  and  _255
REMARK  100  A    between atoms: _255  and  _256
REMARK  101  A    between atoms: _255  and  _258
REMARK  102  A    between atoms: _258  and  _259
REMARK  103  A    between atoms: _259  and  _260
REMARK  104  A    between atoms: _264  and  _265
REMARK  105  A    between atoms: _270  and  _272
REMARK  106  A    between atoms: _272  and  _273
REMARK  107  A    between atoms: _272  and  _275
REMARK  108  A    between atoms: _275  and  _276
REMARK  109  A    between atoms: _281  and  _282
REMARK  110  A    between atoms: _284  and  _286
REMARK  111  A    between atoms: _286  and  _287
REMARK  112  A    between atoms: _286  and  _289
REMARK  113  A    between atoms: _289  and  _290
REMARK  114  A    between atoms: _293  and  _295
REMARK  115  A    between atoms: _295  and  _296
REMARK  116  A    between atoms: _295  and  _298
REMARK  117  A    between atoms: _298  and  _299
REMARK  118  A    between atoms: _302  and  _304
REMARK  119  A    between atoms: _304  and  _305
REMARK  120  A    between atoms: _304  and  _307
REMARK  121  A    between atoms: _310  and  _312
REMARK  122  A    between atoms: _312  and  _313
REMARK  123  A    between atoms: _312  and  _315
REMARK  124  A    between atoms: _315  and  _316
REMARK  125  A    between atoms: _321  and  _323
REMARK  126  A    between atoms: _323  and  _324
REMARK  127  A    between atoms: _323  and  _326
REMARK  128  A    between atoms: _326  and  _327
REMARK  129  A    between atoms: _330  and  _332
REMARK  130  A    between atoms: _332  and  _333
REMARK  131  A    between atoms: _332  and  _335
REMARK  132  A    between atoms: _335  and  _336
REMARK  133  A    between atoms: _336  and  _337
REMARK  134  A    between atoms: _342  and  _344
REMARK  135  A    between atoms: _344  and  _345
REMARK  136  A    between atoms: _344  and  _347
REMARK  137  A    between atoms: _347  and  _348
REMARK  138  A    between atoms: _353  and  _354
REMARK  139  A    between atoms: _356  and  _358
REMARK  140  A    between atoms: _358  and  _359
REMARK  141  A    between atoms: _358  and  _361
REMARK  142  A    between atoms: _361  and  _362
REMARK  143  A    between atoms: _362  and  _363
REMARK  144  A    between atoms: _366  and  _368
REMARK  145  A    between atoms: _368  and  _369
REMARK  146  A    between atoms: _368  and  _371
REMARK  147  A    between atoms: _371  and  _372
REMARK  148  A    between atoms: _372  and  _373
REMARK  149  A    between atoms: _378  and  _380
REMARK  150  A    between atoms: _380  and  _381
REMARK  151  A    between atoms: _380  and  _383
REMARK  152  A    between atoms: _383  and  _384
REMARK  153  A    between atoms: _384  and  _385
REMARK  154  A    between atoms: _390  and  _392
REMARK  155  A    between atoms: _392  and  _393
REMARK  156  A    between atoms: _392  and  _395
REMARK  157  A    between atoms: _395  and  _396
REMARK  158  A    between atoms: _396  and  _397
REMARK  159  A    between atoms: _397  and  _398
REMARK  160  A    between atoms: _407  and  _409
REMARK  161  A    between atoms: _409  and  _410
REMARK  162  A    between atoms: _409  and  _412
REMARK  163  A    between atoms: _412  and  _413
REMARK  164  A    between atoms: _416  and  _418
REMARK  165  A    between atoms: _418  and  _419
REMARK  166  A    between atoms: _418  and  _421
REMARK  167  A    between atoms: _421  and  _422
REMARK  168  A    between atoms: _428  and  _430
REMARK  169  A    between atoms: _430  and  _431
REMARK  170  A    between atoms: _430  and  _433
REMARK  171  A    between atoms: _433  and  _434
REMARK  172  A    between atoms: _434  and  _435
REMARK  173  A    between atoms: _435  and  _436
REMARK  174  A    between atoms: _445  and  _447
REMARK  175  A    between atoms: _447  and  _448
REMARK  176  A    between atoms: _447  and  _450
REMARK  177  A    between atoms: _450  and  _451
REMARK  178  A    between atoms: _454  and  _456
REMARK  179  A    between atoms: _456  and  _457
REMARK  180  A    between atoms: _456  and  _459
REMARK  181  A    between atoms: _459  and  _460
REMARK  182  A    between atoms: _463  and  _464
REMARK  183  A    between atoms: _469  and  _471
REMARK  184  A    between atoms: _471  and  _472
REMARK  185  A    between atoms: _471  and  _474
REMARK  186  A    between atoms: _474  and  _475
REMARK  187  A    between atoms: _478  and  _480
REMARK  188  A    between atoms: _480  and  _481
REMARK  189  A    between atoms: _484  and  _486
REMARK  190  A    between atoms: _486  and  _487
REMARK  191  A    between atoms: _486  and  _489
REMARK  192  A    between atoms: _492  and  _494
REMARK  193  A    between atoms: _494  and  _495
REMARK  194  A    between atoms: _494  and  _497
REMARK  195  A    between atoms: _500  and  _502
REMARK  196  A    between atoms: _502  and  _503
REMARK  197  A    between atoms: _502  and  _505
REMARK  198  A    between atoms: _505  and  _506
REMARK  199  A    between atoms: _509  and  _511
REMARK  200  A    between atoms: _511  and  _512
REMARK  201  A    between atoms: _511  and  _514
REMARK  202  A    between atoms: _517  and  _519
REMARK  203  A    between atoms: _519  and  _520
REMARK  204  A    between atoms: _519  and  _522
REMARK  205  A    between atoms: _522  and  _523
REMARK  206  A    between atoms: _523  and  _524
REMARK  207  A    between atoms: _526  and  _528
REMARK  208  A    between atoms: _528  and  _529
REMARK  209  A    between atoms: _528  and  _531
REMARK  210  A    between atoms: _531  and  _532
REMARK  211  A    between atoms: _538  and  _540
REMARK  212  A    between atoms: _540  and  _541
REMARK  213  A    between atoms: _540  and  _543
REMARK  214  A    between atoms: _543  and  _544
REMARK  215  A    between atoms: _548  and  _549
REMARK  216  A    between atoms: _554  and  _556
REMARK  217  A    between atoms: _556  and  _557
REMARK  218  A    between atoms: _560  and  _562
REMARK  219  A    between atoms: _562  and  _563
REMARK  220  A    between atoms: _562  and  _565
REMARK  221  A    between atoms: _565  and  _566
REMARK                            x       y       z     vdW  Elec       q    Type
REMARK                         _______ _______ _______ _____ _____    ______ ____
ROOT
ATOM      1  O   HOH     1     -16.131  24.997  -1.571  0.00  0.00    +0.000 OA
ENDROOT
TORSDOF 0
REMARK  Name = ../refined-set-2016/2bys/2bys_pocket.pdb
REMARK  221 active torsions:
REMARK  status: ('A' for Active; 'I' for Inactive)
REMARK    1  A    between atoms: _1  and  _3
REMARK    2  A    between atoms: _3  and  _4
REMARK    3  A    between atoms: _3  and  _6
REMARK    4  A    between atoms: _6  and  _7
REMARK    5  A    between atoms: _10  and  _12
REMARK    6  A    between atoms: _12  and  _13
REMARK    7  A    between atoms: _12  and  _15
REMARK    8  A    between atoms: _15  and  _16
REMARK    9  A    between atoms: _19  and  _21
REMARK   10  A    between atoms: _21  and  _22
REMARK   11  A    between atoms: _21  and  _24
REMARK   12  A    between atoms: _24  and  _25
REMARK   13  A    between atoms: _28  and  _30
REMARK   14  A    between atoms: _30  and  _31
REMARK   15  A    between atoms: _34  and  _36
REMARK   16  A    between atoms: _36  and  _37
REMARK   17  A    between atoms: _36  and  _39
REMARK   18  A    between atoms: _39  and  _40
REMARK   19  A    between atoms: _45  and  _46
REMARK   20  A    between atoms: _48  and  _50
REMARK   21  A    between atoms: _50  and  _51
REMARK   22  A    between atoms: _50  and  _53
REMARK   23  A    between atoms: _53  and  _54
REMARK   24  A    between atoms: _56  and  _58
REMARK   25  A    between atoms: _58  and  _59
REMARK   26  A    between atoms: _58  and  _61
REMARK   27  A    between atoms: _61  and  _62
REMARK   28  A    between atoms: _64  and  _66
REMARK   29  A    between atoms: _66  and  _67
REMARK   30  A    between atoms: _66  and  _69
REMARK   31  A    between atoms: _72  and  _74
REMARK   32  A    between atoms: _74  and  _75
REMARK   33  A    between atoms: _74  and  _77
REMARK   34  A    between atoms: _77  and  _78
REMARK   35  A    between atoms: _78  and  _79
REMARK   36  A    between atoms: _79  and  _80
REMARK   37  A    between atoms: _80  and  _81
REMARK   38  A    between atoms: _85  and  _87
REMARK   39  A    between atoms: _87  and  _88
REMARK   40  A    between atoms: _87  and  _90
REMARK   41  A    between atoms: _90  and  _91
REMARK   42  A    between atoms: _97  and  _99
REMARK   43  A    between atoms: _99  and  _100
REMARK   44  A    between atoms: _102  and  _104
REMARK   45  A    between atoms: _104  and  _105
REMARK   46  A    between atoms: _104  and  _107
REMARK   47  A    between atoms: _107  and  _108
REMARK   48  A    between atoms: _110  and  _112
REMARK   49  A    between atoms: _112  and  _113
REMARK   50  A    between atoms: _112  and  _115
REMARK   51  A    between atoms: _115  and  _116
REMARK   52  A    between atoms: _126  and  _128
REMARK   53  A    between atoms: _128  and  _129
REMARK   54  A    between atoms: _128  and  _131
REMARK   55  A    between atoms: _134  and  _136
REMARK   56  A    between atoms: _136  and  _137
REMARK   57  A    between atoms: _136  and  _139
REMARK   58  A    between atoms: _139  and  _140
REMARK   59  A    between atoms: _145  and  _146
REMARK   60  A    between atoms: _148  and  _150
REMARK   61  A    between atoms: _150  and  _151
REMARK   62  A    between atoms: _150  and  _153
REMARK   63  A    between atoms: _153  and  _154
REMARK   64  A    between atoms: _156  and  _158
REMARK   65  A    between atoms: _158  and  _159
REMARK   66  A    between atoms: _158  and  _161
REMARK   67  A    between atoms: _161  and  _162
REMARK   68  A    between atoms: _162  and  _163
REMARK   69  A    between atoms: _166  and  _168
REMARK   70  A    between atoms: _168  and  _169
REMARK   71  A    between atoms: _168  and  _171
REMARK   72  A    between atoms: _171  and  _172
REMARK   73  A    between atoms: _175  and  _177
REMARK   74  A    between atoms: _177  and  _178
REMARK   75  A    between atoms: _177  and  _180
REMARK   76  A    between atoms: _180  and  _181
REMARK   77  A    between atoms: _181  and  _182
REMARK   78  A    between atoms: _187  and  _189
REMARK   79  A    between atoms: _189  and  _190
REMARK   80  A    between atoms: _189  and  _192
REMARK   81  A    between atoms: _192  and  _193
REMARK   82  A    between atoms: _193  and  _194
REMARK   83  A    between atoms: _199  and  _201
REMARK   84  A    between atoms: _201  and  _202
REMARK   85  A    between atoms: _201  and  _204
REMARK   86  A    between atoms: _204  and  _205
REMARK   87  A    between atoms: _210  and  _212
REMARK   88  A    between atoms: _212  and  _213
REMARK   89  A    between atoms: _212  and  _215
REMARK   90  A    between atoms: _215  and  _216
REMARK   91  A    between atoms: _221  and  _222
REMARK   92  A    between atoms: _224  and  _226
REMARK   93  A    between atoms: _226  and  _227
REMARK   94  A    between atoms: _226  and  _229
REMARK   95  A    between atoms: _229  and  _230
REMARK   96  A    between atoms: _232  and  _234
REMARK   97  A    between atoms: _241  and  _242
REMARK   98  A    between atoms: _247  and  _248
REMARK   99  A    between atoms: _253  and  _255
REMARK  100  A    between atoms: _255  and  _256
REMARK  101  A    between atoms: _255  and  _258
REMARK  102  A    between atoms: _258  and  _259
REMARK  103  A    between atoms: _259  and  _260
REMARK  104  A    between atoms: _264  and  _265
REMARK  105  A    between atoms: _270  and  _272
REMARK  106  A    between atoms: _272  and  _273
REMARK  107  A    between atoms: _272  and  _275
REMARK  108  A    between atoms: _275  and  _276
REMARK  109  A    between atoms: _281  and  _282
REMARK  110  A    between atoms: _284  and  _286
REMARK  111  A    between atoms: _286  and  _287
REMARK  112  A    between atoms: _286  and  _289
REMARK  113  A    between atoms: _289  and  _290
REMARK  114  A    between atoms: _293  and  _295
REMARK  115  A    between atoms: _295  and  _296
REMARK  116  A    between atoms: _295  and  _298
REMARK  117  A    between atoms: _298  and  _299
REMARK  118  A    between atoms: _302  and  _304
REMARK  119  A    between atoms: _304  and  _305
REMARK  120  A    between atoms: _304  and  _307
REMARK  121  A    between atoms: _310  and  _312
REMARK  122  A    between atoms: _312  and  _313
REMARK  123  A    between atoms: _312  and  _315
REMARK  124  A    between atoms: _315  and  _316
REMARK  125  A    between atoms: _321  and  _323
REMARK  126  A    between atoms: _323  and  _324
REMARK  127  A    between atoms: _323  and  _326
REMARK  128  A    between atoms: _326  and  _327
REMARK  129  A    between atoms: _330  and  _332
REMARK  130  A    between atoms: _332  and  _333
REMARK  131  A    between atoms: _332  and  _335
REMARK  132  A    between atoms: _335  and  _336
REMARK  133  A    between atoms: _336  and  _337
REMARK  134  A    between atoms: _342  and  _344
REMARK  135  A    between atoms: _344  and  _345
REMARK  136  A    between atoms: _344  and  _347
REMARK  137  A    between atoms: _347  and  _348
REMARK  138  A    between atoms: _353  and  _354
REMARK  139  A    between atoms: _356  and  _358
REMARK  140  A    between atoms: _358  and  _359
REMARK  141  A    between atoms: _358  and  _361
REMARK  142  A    between atoms: _361  and  _362
REMARK  143  A    between atoms: _362  and  _363
REMARK  144  A    between atoms: _366  and  _368
REMARK  145  A    between atoms: _368  and  _369
REMARK  146  A    between atoms: _368  and  _371
REMARK  147  A    between atoms: _371  and  _372
REMARK  148  A    between atoms: _372  and  _373
REMARK  149  A    between atoms: _378  and  _380
REMARK  150  A    between atoms: _380  and  _381
REMARK  151  A    between atoms: _380  and  _383
REMARK  152  A    between atoms: _383  and  _384
REMARK  153  A    between atoms: _384  and  _385
REMARK  154  A    between atoms: _390  and  _392
REMARK  155  A    between atoms: _392  and  _393
REMARK  156  A    between atoms: _392  and  _395
REMARK  157  A    between atoms: _395  and  _396
REMARK  158  A    between atoms: _396  and  _397
REMARK  159  A    between atoms: _397  and  _398
REMARK  160  A    between atoms: _407  and  _409
REMARK  161  A    between atoms: _409  and  _410
REMARK  162  A    between atoms: _409  and  _412
REMARK  163  A    between atoms: _412  and  _413
REMARK  164  A    between atoms: _416  and  _418
REMARK  165  A    between atoms: _418  and  _419
REMARK  166  A    between atoms: _418  and  _421
REMARK  167  A    between atoms: _421  and  _422
REMARK  168  A    between atoms: _428  and  _430
REMARK  169  A    between atoms: _430  and  _431
REMARK  170  A    between atoms: _430  and  _433
REMARK  171  A    between atoms: _433  and  _434
REMARK  172  A    between atoms: _434  and  _435
REMARK  173  A    between atoms: _435  and  _436
REMARK  174  A    between atoms: _445  and  _447
REMARK  175  A    between atoms: _447  and  _448
REMARK  176  A    between atoms: _447  and  _450
REMARK  177  A    between atoms: _450  and  _451
REMARK  178  A    between atoms: _454  and  _456
REMARK  179  A    between atoms: _456  and  _457
REMARK  180  A    between atoms: _456  and  _459
REMARK  181  A    between atoms: _459  and  _460
REMARK  182  A    between atoms: _463  and  _464
REMARK  183  A    between atoms: _469  and  _471
REMARK  184  A    between atoms: _471  and  _472
REMARK  185  A    between atoms: _471  and  _474
REMARK  186  A    between atoms: _474  and  _475
REMARK  187  A    between atoms: _478  and  _480
REMARK  188  A    between atoms: _480  and  _481
REMARK  189  A    between atoms: _484  and  _486
REMARK  190  A    between atoms: _486  and  _487
REMARK  191  A    between atoms: _486  and  _489
REMARK  192  A    between atoms: _492  and  _494
REMARK  193  A    between atoms: _494  and  _495
REMARK  194  A    between atoms: _494  and  _497
REMARK  195  A    between atoms: _500  and  _502
REMARK  196  A    between atoms: _502  and  _503
REMARK  197  A    between atoms: _502  and  _505
REMARK  198  A    between atoms: _505  and  _506
REMARK  199  A    between atoms: _509  and  _511
REMARK  200  A    between atoms: _511  and  _512
REMARK  201  A    between atoms: _511  and  _514
REMARK  202  A    between atoms: _517  and  _519
REMARK  203  A    between atoms: _519  and  _520
REMARK  204  A    between atoms: _519  and  _522
REMARK  205  A    between atoms: _522  and  _523
REMARK  206  A    between atoms: _523  and  _524
REMARK  207  A    between atoms: _526  and  _528
REMARK  208  A    between atoms: _528  and  _529
REMARK  209  A    between atoms: _528  and  _531
REMARK  210  A    between atoms: _531  and  _532
REMARK  211  A    between atoms: _538  and  _540
REMARK  212  A    between atoms: _540  and  _541
REMARK  213  A    between atoms: _540  and  _543
REMARK  214  A    between atoms: _543  and  _544
REMARK  215  A    between atoms: _548  and  _549
REMARK  216  A    between atoms: _554  and  _556
REMARK  217  A    between atoms: _556  and  _557
REMARK  218  A    between atoms: _560  and  _562
REMARK  219  A    between atoms: _562  and  _563
REMARK  220  A    between atoms: _562  and  _565
REMARK  221  A    between atoms: _565  and  _566
REMARK                            x       y       z     vdW  Elec       q    Type
REMARK                         _______ _______ _______ _____ _____    ______ ____
ROOT
ATOM      1  O   HOH     1     -16.670  24.043  -5.040  0.00  0.00    +0.000 OA
ENDROOT
TORSDOF 0
REMARK  Name = ../refined-set-2016/2bys/2bys_pocket.pdb
REMARK  221 active torsions:
REMARK  status: ('A' for Active; 'I' for Inactive)
REMARK    1  A    between atoms: _1  and  _3
REMARK    2  A    between atoms: _3  and  _4
REMARK    3  A    between atoms: _3  and  _6
REMARK    4  A    between atoms: _6  and  _7
REMARK    5  A    between atoms: _10  and  _12
REMARK    6  A    between atoms: _12  and  _13
REMARK    7  A    between atoms: _12  and  _15
REMARK    8  A    between atoms: _15  and  _16
REMARK    9  A    between atoms: _19  and  _21
REMARK   10  A    between atoms: _21  and  _22
REMARK   11  A    between atoms: _21  and  _24
REMARK   12  A    between atoms: _24  and  _25
REMARK   13  A    between atoms: _28  and  _30
REMARK   14  A    between atoms: _30  and  _31
REMARK   15  A    between atoms: _34  and  _36
REMARK   16  A    between atoms: _36  and  _37
REMARK   17  A    between atoms: _36  and  _39
REMARK   18  A    between atoms: _39  and  _40
REMARK   19  A    between atoms: _45  and  _46
REMARK   20  A    between atoms: _48  and  _50
REMARK   21  A    between atoms: _50  and  _51
REMARK   22  A    between atoms: _50  and  _53
REMARK   23  A    between atoms: _53  and  _54
REMARK   24  A    between atoms: _56  and  _58
REMARK   25  A    between atoms: _58  and  _59
REMARK   26  A    between atoms: _58  and  _61
REMARK   27  A    between atoms: _61  and  _62
REMARK   28  A    between atoms: _64  and  _66
REMARK   29  A    between atoms: _66  and  _67
REMARK   30  A    between atoms: _66  and  _69
REMARK   31  A    between atoms: _72  and  _74
REMARK   32  A    between atoms: _74  and  _75
REMARK   33  A    between atoms: _74  and  _77
REMARK   34  A    between atoms: _77  and  _78
REMARK   35  A    between atoms: _78  and  _79
REMARK   36  A    between atoms: _79  and  _80
REMARK   37  A    between atoms: _80  and  _81
REMARK   38  A    between atoms: _85  and  _87
REMARK   39  A    between atoms: _87  and  _88
REMARK   40  A    between atoms: _87  and  _90
REMARK   41  A    between atoms: _90  and  _91
REMARK   42  A    between atoms: _97  and  _99
REMARK   43  A    between atoms: _99  and  _100
REMARK   44  A    between atoms: _102  and  _104
REMARK   45  A    between atoms: _104  and  _105
REMARK   46  A    between atoms: _104  and  _107
REMARK   47  A    between atoms: _107  and  _108
REMARK   48  A    between atoms: _110  and  _112
REMARK   49  A    between atoms: _112  and  _113
REMARK   50  A    between atoms: _112  and  _115
REMARK   51  A    between atoms: _115  and  _116
REMARK   52  A    between atoms: _126  and  _128
REMARK   53  A    between atoms: _128  and  _129
REMARK   54  A    between atoms: _128  and  _131
REMARK   55  A    between atoms: _134  and  _136
REMARK   56  A    between atoms: _136  and  _137
REMARK   57  A    between atoms: _136  and  _139
REMARK   58  A    between atoms: _139  and  _140
REMARK   59  A    between atoms: _145  and  _146
REMARK   60  A    between atoms: _148  and  _150
REMARK   61  A    between atoms: _150  and  _151
REMARK   62  A    between atoms: _150  and  _153
REMARK   63  A    between atoms: _153  and  _154
REMARK   64  A    between atoms: _156  and  _158
REMARK   65  A    between atoms: _158  and  _159
REMARK   66  A    between atoms: _158  and  _161
REMARK   67  A    between atoms: _161  and  _162
REMARK   68  A    between atoms: _162  and  _163
REMARK   69  A    between atoms: _166  and  _168
REMARK   70  A    between atoms: _168  and  _169
REMARK   71  A    between atoms: _168  and  _171
REMARK   72  A    between atoms: _171  and  _172
REMARK   73  A    between atoms: _175  and  _177
REMARK   74  A    between atoms: _177  and  _178
REMARK   75  A    between atoms: _177  and  _180
REMARK   76  A    between atoms: _180  and  _181
REMARK   77  A    between atoms: _181  and  _182
REMARK   78  A    between atoms: _187  and  _189
REMARK   79  A    between atoms: _189  and  _190
REMARK   80  A    between atoms: _189  and  _192
REMARK   81  A    between atoms: _192  and  _193
REMARK   82  A    between atoms: _193  and  _194
REMARK   83  A    between atoms: _199  and  _201
REMARK   84  A    between atoms: _201  and  _202
REMARK   85  A    between atoms: _201  and  _204
REMARK   86  A    between atoms: _204  and  _205
REMARK   87  A    between atoms: _210  and  _212
REMARK   88  A    between atoms: _212  and  _213
REMARK   89  A    between atoms: _212  and  _215
REMARK   90  A    between atoms: _215  and  _216
REMARK   91  A    between atoms: _221  and  _222
REMARK   92  A    between atoms: _224  and  _226
REMARK   93  A    between atoms: _226  and  _227
REMARK   94  A    between atoms: _226  and  _229
REMARK   95  A    between atoms: _229  and  _230
REMARK   96  A    between atoms: _232  and  _234
REMARK   97  A    between atoms: _241  and  _242
REMARK   98  A    between atoms: _247  and  _248
REMARK   99  A    between atoms: _253  and  _255
REMARK  100  A    between atoms: _255  and  _256
REMARK  101  A    between atoms: _255  and  _258
REMARK  102  A    between atoms: _258  and  _259
REMARK  103  A    between atoms: _259  and  _260
REMARK  104  A    between atoms: _264  and  _265
REMARK  105  A    between atoms: _270  and  _272
REMARK  106  A    between atoms: _272  and  _273
REMARK  107  A    between atoms: _272  and  _275
REMARK  108  A    between atoms: _275  and  _276
REMARK  109  A    between atoms: _281  and  _282
REMARK  110  A    between atoms: _284  and  _286
REMARK  111  A    between atoms: _286  and  _287
REMARK  112  A    between atoms: _286  and  _289
REMARK  113  A    between atoms: _289  and  _290
REMARK  114  A    between atoms: _293  and  _295
REMARK  115  A    between atoms: _295  and  _296
REMARK  116  A    between atoms: _295  and  _298
REMARK  117  A    between atoms: _298  and  _299
REMARK  118  A    between atoms: _302  and  _304
REMARK  119  A    between atoms: _304  and  _305
REMARK  120  A    between atoms: _304  and  _307
REMARK  121  A    between atoms: _310  and  _312
REMARK  122  A    between atoms: _312  and  _313
REMARK  123  A    between atoms: _312  and  _315
REMARK  124  A    between atoms: _315  and  _316
REMARK  125  A    between atoms: _321  and  _323
REMARK  126  A    between atoms: _323  and  _324
REMARK  127  A    between atoms: _323  and  _326
REMARK  128  A    between atoms: _326  and  _327
REMARK  129  A    between atoms: _330  and  _332
REMARK  130  A    between atoms: _332  and  _333
REMARK  131  A    between atoms: _332  and  _335
REMARK  132  A    between atoms: _335  and  _336
REMARK  133  A    between atoms: _336  and  _337
REMARK  134  A    between atoms: _342  and  _344
REMARK  135  A    between atoms: _344  and  _345
REMARK  136  A    between atoms: _344  and  _347
REMARK  137  A    between atoms: _347  and  _348
REMARK  138  A    between atoms: _353  and  _354
REMARK  139  A    between atoms: _356  and  _358
REMARK  140  A    between atoms: _358  and  _359
REMARK  141  A    between atoms: _358  and  _361
REMARK  142  A    between atoms: _361  and  _362
REMARK  143  A    between atoms: _362  and  _363
REMARK  144  A    between atoms: _366  and  _368
REMARK  145  A    between atoms: _368  and  _369
REMARK  146  A    between atoms: _368  and  _371
REMARK  147  A    between atoms: _371  and  _372
REMARK  148  A    between atoms: _372  and  _373
REMARK  149  A    between atoms: _378  and  _380
REMARK  150  A    between atoms: _380  and  _381
REMARK  151  A    between atoms: _380  and  _383
REMARK  152  A    between atoms: _383  and  _384
REMARK  153  A    between atoms: _384  and  _385
REMARK  154  A    between atoms: _390  and  _392
REMARK  155  A    between atoms: _392  and  _393
REMARK  156  A    between atoms: _392  and  _395
REMARK  157  A    between atoms: _395  and  _396
REMARK  158  A    between atoms: _396  and  _397
REMARK  159  A    between atoms: _397  and  _398
REMARK  160  A    between atoms: _407  and  _409
REMARK  161  A    between atoms: _409  and  _410
REMARK  162  A    between atoms: _409  and  _412
REMARK  163  A    between atoms: _412  and  _413
REMARK  164  A    between atoms: _416  and  _418
REMARK  165  A    between atoms: _418  and  _419
REMARK  166  A    between atoms: _418  and  _421
REMARK  167  A    between atoms: _421  and  _422
REMARK  168  A    between atoms: _428  and  _430
REMARK  169  A    between atoms: _430  and  _431
REMARK  170  A    between atoms: _430  and  _433
REMARK  171  A    between atoms: _433  and  _434
REMARK  172  A    between atoms: _434  and  _435
REMARK  173  A    between atoms: _435  and  _436
REMARK  174  A    between atoms: _445  and  _447
REMARK  175  A    between atoms: _447  and  _448
REMARK  176  A    between atoms: _447  and  _450
REMARK  177  A    between atoms: _450  and  _451
REMARK  178  A    between atoms: _454  and  _456
REMARK  179  A    between atoms: _456  and  _457
REMARK  180  A    between atoms: _456  and  _459
REMARK  181  A    between atoms: _459  and  _460
REMARK  182  A    between atoms: _463  and  _464
REMARK  183  A    between atoms: _469  and  _471
REMARK  184  A    between atoms: _471  and  _472
REMARK  185  A    between atoms: _471  and  _474
REMARK  186  A    between atoms: _474  and  _475
REMARK  187  A    between atoms: _478  and  _480
REMARK  188  A    between atoms: _480  and  _481
REMARK  189  A    between atoms: _484  and  _486
REMARK  190  A    between atoms: _486  and  _487
REMARK  191  A    between atoms: _486  and  _489
REMARK  192  A    between atoms: _492  and  _494
REMARK  193  A    between atoms: _494  and  _495
REMARK  194  A    between atoms: _494  and  _497
REMARK  195  A    between atoms: _500  and  _502
REMARK  196  A    between atoms: _502  and  _503
REMARK  197  A    between atoms: _502  and  _505
REMARK  198  A    between atoms: _505  and  _506
REMARK  199  A    between atoms: _509  and  _511
REMARK  200  A    between atoms: _511  and  _512
REMARK  201  A    between atoms: _511  and  _514
REMARK  202  A    between atoms: _517  and  _519
REMARK  203  A    between atoms: _519  and  _520
REMARK  204  A    between atoms: _519  and  _522
REMARK  205  A    between atoms: _522  and  _523
REMARK  206  A    between atoms: _523  and  _524
REMARK  207  A    between atoms: _526  and  _528
REMARK  208  A    between atoms: _528  and  _529
REMARK  209  A    between atoms: _528  and  _531
REMARK  210  A    between atoms: _531  and  _532
REMARK  211  A    between atoms: _538  and  _540
REMARK  212  A    between atoms: _540  and  _541
REMARK  213  A    between atoms: _540  and  _543
REMARK  214  A    between atoms: _543  and  _544
REMARK  215  A    between atoms: _548  and  _549
REMARK  216  A    between atoms: _554  and  _556
REMARK  217  A    between atoms: _556  and  _557
REMARK  218  A    between atoms: _560  and  _562
REMARK  219  A    between atoms: _562  and  _563
REMARK  220  A    between atoms: _562  and  _565
REMARK  221  A    between atoms: _565  and  _566
REMARK                            x       y       z     vdW  Elec       q    Type
REMARK                         _______ _______ _______ _____ _____    ______ ____
ROOT
ATOM      1  O   HOH     1     -13.260  20.807  -6.644  0.00  0.00    +0.000 OA
ENDROOT
TORSDOF 0
REMARK  Name = ../refined-set-2016/2bys/2bys_pocket.pdb
REMARK  221 active torsions:
REMARK  status: ('A' for Active; 'I' for Inactive)
REMARK    1  A    between atoms: _1  and  _3
REMARK    2  A    between atoms: _3  and  _4
REMARK    3  A    between atoms: _3  and  _6
REMARK    4  A    between atoms: _6  and  _7
REMARK    5  A    between atoms: _10  and  _12
REMARK    6  A    between atoms: _12  and  _13
REMARK    7  A    between atoms: _12  and  _15
REMARK    8  A    between atoms: _15  and  _16
REMARK    9  A    between atoms: _19  and  _21
REMARK   10  A    between atoms: _21  and  _22
REMARK   11  A    between atoms: _21  and  _24
REMARK   12  A    between atoms: _24  and  _25
REMARK   13  A    between atoms: _28  and  _30
REMARK   14  A    between atoms: _30  and  _31
REMARK   15  A    between atoms: _34  and  _36
REMARK   16  A    between atoms: _36  and  _37
REMARK   17  A    between atoms: _36  and  _39
REMARK   18  A    between atoms: _39  and  _40
REMARK   19  A    between atoms: _45  and  _46
REMARK   20  A    between atoms: _48  and  _50
REMARK   21  A    between atoms: _50  and  _51
REMARK   22  A    between atoms: _50  and  _53
REMARK   23  A    between atoms: _53  and  _54
REMARK   24  A    between atoms: _56  and  _58
REMARK   25  A    between atoms: _58  and  _59
REMARK   26  A    between atoms: _58  and  _61
REMARK   27  A    between atoms: _61  and  _62
REMARK   28  A    between atoms: _64  and  _66
REMARK   29  A    between atoms: _66  and  _67
REMARK   30  A    between atoms: _66  and  _69
REMARK   31  A    between atoms: _72  and  _74
REMARK   32  A    between atoms: _74  and  _75
REMARK   33  A    between atoms: _74  and  _77
REMARK   34  A    between atoms: _77  and  _78
REMARK   35  A    between atoms: _78  and  _79
REMARK   36  A    between atoms: _79  and  _80
REMARK   37  A    between atoms: _80  and  _81
REMARK   38  A    between atoms: _85  and  _87
REMARK   39  A    between atoms: _87  and  _88
REMARK   40  A    between atoms: _87  and  _90
REMARK   41  A    between atoms: _90  and  _91
REMARK   42  A    between atoms: _97  and  _99
REMARK   43  A    between atoms: _99  and  _100
REMARK   44  A    between atoms: _102  and  _104
REMARK   45  A    between atoms: _104  and  _105
REMARK   46  A    between atoms: _104  and  _107
REMARK   47  A    between atoms: _107  and  _108
REMARK   48  A    between atoms: _110  and  _112
REMARK   49  A    between atoms: _112  and  _113
REMARK   50  A    between atoms: _112  and  _115
REMARK   51  A    between atoms: _115  and  _116
REMARK   52  A    between atoms: _126  and  _128
REMARK   53  A    between atoms: _128  and  _129
REMARK   54  A    between atoms: _128  and  _131
REMARK   55  A    between atoms: _134  and  _136
REMARK   56  A    between atoms: _136  and  _137
REMARK   57  A    between atoms: _136  and  _139
REMARK   58  A    between atoms: _139  and  _140
REMARK   59  A    between atoms: _145  and  _146
REMARK   60  A    between atoms: _148  and  _150
REMARK   61  A    between atoms: _150  and  _151
REMARK   62  A    between atoms: _150  and  _153
REMARK   63  A    between atoms: _153  and  _154
REMARK   64  A    between atoms: _156  and  _158
REMARK   65  A    between atoms: _158  and  _159
REMARK   66  A    between atoms: _158  and  _161
REMARK   67  A    between atoms: _161  and  _162
REMARK   68  A    between atoms: _162  and  _163
REMARK   69  A    between atoms: _166  and  _168
REMARK   70  A    between atoms: _168  and  _169
REMARK   71  A    between atoms: _168  and  _171
REMARK   72  A    between atoms: _171  and  _172
REMARK   73  A    between atoms: _175  and  _177
REMARK   74  A    between atoms: _177  and  _178
REMARK   75  A    between atoms: _177  and  _180
REMARK   76  A    between atoms: _180  and  _181
REMARK   77  A    between atoms: _181  and  _182
REMARK   78  A    between atoms: _187  and  _189
REMARK   79  A    between atoms: _189  and  _190
REMARK   80  A    between atoms: _189  and  _192
REMARK   81  A    between atoms: _192  and  _193
REMARK   82  A    between atoms: _193  and  _194
REMARK   83  A    between atoms: _199  and  _201
REMARK   84  A    between atoms: _201  and  _202
REMARK   85  A    between atoms: _201  and  _204
REMARK   86  A    between atoms: _204  and  _205
REMARK   87  A    between atoms: _210  and  _212
REMARK   88  A    between atoms: _212  and  _213
REMARK   89  A    between atoms: _212  and  _215
REMARK   90  A    between atoms: _215  and  _216
REMARK   91  A    between atoms: _221  and  _222
REMARK   92  A    between atoms: _224  and  _226
REMARK   93  A    between atoms: _226  and  _227
REMARK   94  A    between atoms: _226  and  _229
REMARK   95  A    between atoms: _229  and  _230
REMARK   96  A    between atoms: _232  and  _234
REMARK   97  A    between atoms: _241  and  _242
REMARK   98  A    between atoms: _247  and  _248
REMARK   99  A    between atoms: _253  and  _255
REMARK  100  A    between atoms: _255  and  _256
REMARK  101  A    between atoms: _255  and  _258
REMARK  102  A    between atoms: _258  and  _259
REMARK  103  A    between atoms: _259  and  _260
REMARK  104  A    between atoms: _264  and  _265
REMARK  105  A    between atoms: _270  and  _272
REMARK  106  A    between atoms: _272  and  _273
REMARK  107  A    between atoms: _272  and  _275
REMARK  108  A    between atoms: _275  and  _276
REMARK  109  A    between atoms: _281  and  _282
REMARK  110  A    between atoms: _284  and  _286
REMARK  111  A    between atoms: _286  and  _287
REMARK  112  A    between atoms: _286  and  _289
REMARK  113  A    between atoms: _289  and  _290
REMARK  114  A    between atoms: _293  and  _295
REMARK  115  A    between atoms: _295  and  _296
REMARK  116  A    between atoms: _295  and  _298
REMARK  117  A    between atoms: _298  and  _299
REMARK  118  A    between atoms: _302  and  _304
REMARK  119  A    between atoms: _304  and  _305
REMARK  120  A    between atoms: _304  and  _307
REMARK  121  A    between atoms: _310  and  _312
REMARK  122  A    between atoms: _312  and  _313
REMARK  123  A    between atoms: _312  and  _315
REMARK  124  A    between atoms: _315  and  _316
REMARK  125  A    between atoms: _321  and  _323
REMARK  126  A    between atoms: _323  and  _324
REMARK  127  A    between atoms: _323  and  _326
REMARK  128  A    between atoms: _326  and  _327
REMARK  129  A    between atoms: _330  and  _332
REMARK  130  A    between atoms: _332  and  _333
REMARK  131  A    between atoms: _332  and  _335
REMARK  132  A    between atoms: _335  and  _336
REMARK  133  A    between atoms: _336  and  _337
REMARK  134  A    between atoms: _342  and  _344
REMARK  135  A    between atoms: _344  and  _345
REMARK  136  A    between atoms: _344  and  _347
REMARK  137  A    between atoms: _347  and  _348
REMARK  138  A    between atoms: _353  and  _354
REMARK  139  A    between atoms: _356  and  _358
REMARK  140  A    between atoms: _358  and  _359
REMARK  141  A    between atoms: _358  and  _361
REMARK  142  A    between atoms: _361  and  _362
REMARK  143  A    between atoms: _362  and  _363
REMARK  144  A    between atoms: _366  and  _368
REMARK  145  A    between atoms: _368  and  _369
REMARK  146  A    between atoms: _368  and  _371
REMARK  147  A    between atoms: _371  and  _372
REMARK  148  A    between atoms: _372  and  _373
REMARK  149  A    between atoms: _378  and  _380
REMARK  150  A    between atoms: _380  and  _381
REMARK  151  A    between atoms: _380  and  _383
REMARK  152  A    between atoms: _383  and  _384
REMARK  153  A    between atoms: _384  and  _385
REMARK  154  A    between atoms: _390  and  _392
REMARK  155  A    between atoms: _392  and  _393
REMARK  156  A    between atoms: _392  and  _395
REMARK  157  A    between atoms: _395  and  _396
REMARK  158  A    between atoms: _396  and  _397
REMARK  159  A    between atoms: _397  and  _398
REMARK  160  A    between atoms: _407  and  _409
REMARK  161  A    between atoms: _409  and  _410
REMARK  162  A    between atoms: _409  and  _412
REMARK  163  A    between atoms: _412  and  _413
REMARK  164  A    between atoms: _416  and  _418
REMARK  165  A    between atoms: _418  and  _419
REMARK  166  A    between atoms: _418  and  _421
REMARK  167  A    between atoms: _421  and  _422
REMARK  168  A    between atoms: _428  and  _430
REMARK  169  A    between atoms: _430  and  _431
REMARK  170  A    between atoms: _430  and  _433
REMARK  171  A    between atoms: _433  and  _434
REMARK  172  A    between atoms: _434  and  _435
REMARK  173  A    between atoms: _435  and  _436
REMARK  174  A    between atoms: _445  and  _447
REMARK  175  A    between atoms: _447  and  _448
REMARK  176  A    between atoms: _447  and  _450
REMARK  177  A    between atoms: _450  and  _451
REMARK  178  A    between atoms: _454  and  _456
REMARK  179  A    between atoms: _456  and  _457
REMARK  180  A    between atoms: _456  and  _459
REMARK  181  A    between atoms: _459  and  _460
REMARK  182  A    between atoms: _463  and  _464
REMARK  183  A    between atoms: _469  and  _471
REMARK  184  A    between atoms: _471  and  _472
REMARK  185  A    between atoms: _471  and  _474
REMARK  186  A    between atoms: _474  and  _475
REMARK  187  A    between atoms: _478  and  _480
REMARK  188  A    between atoms: _480  and  _481
REMARK  189  A    between atoms: _484  and  _486
REMARK  190  A    between atoms: _486  and  _487
REMARK  191  A    between atoms: _486  and  _489
REMARK  192  A    between atoms: _492  and  _494
REMARK  193  A    between atoms: _494  and  _495
REMARK  194  A    between atoms: _494  and  _497
REMARK  195  A    between atoms: _500  and  _502
REMARK  196  A    between atoms: _502  and  _503
REMARK  197  A    between atoms: _502  and  _505
REMARK  198  A    between atoms: _505  and  _506
REMARK  199  A    between atoms: _509  and  _511
REMARK  200  A    between atoms: _511  and  _512
REMARK  201  A    between atoms: _511  and  _514
REMARK  202  A    between atoms: _517  and  _519
REMARK  203  A    between atoms: _519  and  _520
REMARK  204  A    between atoms: _519  and  _522
REMARK  205  A    between atoms: _522  and  _523
REMARK  206  A    between atoms: _523  and  _524
REMARK  207  A    between atoms: _526  and  _528
REMARK  208  A    between atoms: _528  and  _529
REMARK  209  A    between atoms: _528  and  _531
REMARK  210  A    between atoms: _531  and  _532
REMARK  211  A    between atoms: _538  and  _540
REMARK  212  A    between atoms: _540  and  _541
REMARK  213  A    between atoms: _540  and  _543
REMARK  214  A    between atoms: _543  and  _544
REMARK  215  A    between atoms: _548  and  _549
REMARK  216  A    between atoms: _554  and  _556
REMARK  217  A    between atoms: _556  and  _557
REMARK  218  A    between atoms: _560  and  _562
REMARK  219  A    between atoms: _562  and  _563
REMARK  220  A    between atoms: _562  and  _565
REMARK  221  A    between atoms: _565  and  _566
REMARK                            x       y       z     vdW  Elec       q    Type
REMARK                         _______ _______ _______ _____ _____    ______ ____
ROOT
ATOM      1  O   HOH     1      -3.312  29.344  -2.131  0.00  0.00    +0.000 OA
ENDROOT
TORSDOF 0
REMARK  Name = ../refined-set-2016/2bys/2bys_pocket.pdb
REMARK  221 active torsions:
REMARK  status: ('A' for Active; 'I' for Inactive)
REMARK    1  A    between atoms: _1  and  _3
REMARK    2  A    between atoms: _3  and  _4
REMARK    3  A    between atoms: _3  and  _6
REMARK    4  A    between atoms: _6  and  _7
REMARK    5  A    between atoms: _10  and  _12
REMARK    6  A    between atoms: _12  and  _13
REMARK    7  A    between atoms: _12  and  _15
REMARK    8  A    between atoms: _15  and  _16
REMARK    9  A    between atoms: _19  and  _21
REMARK   10  A    between atoms: _21  and  _22
REMARK   11  A    between atoms: _21  and  _24
REMARK   12  A    between atoms: _24  and  _25
REMARK   13  A    between atoms: _28  and  _30
REMARK   14  A    between atoms: _30  and  _31
REMARK   15  A    between atoms: _34  and  _36
REMARK   16  A    between atoms: _36  and  _37
REMARK   17  A    between atoms: _36  and  _39
REMARK   18  A    between atoms: _39  and  _40
REMARK   19  A    between atoms: _45  and  _46
REMARK   20  A    between atoms: _48  and  _50
REMARK   21  A    between atoms: _50  and  _51
REMARK   22  A    between atoms: _50  and  _53
REMARK   23  A    between atoms: _53  and  _54
REMARK   24  A    between atoms: _56  and  _58
REMARK   25  A    between atoms: _58  and  _59
REMARK   26  A    between atoms: _58  and  _61
REMARK   27  A    between atoms: _61  and  _62
REMARK   28  A    between atoms: _64  and  _66
REMARK   29  A    between atoms: _66  and  _67
REMARK   30  A    between atoms: _66  and  _69
REMARK   31  A    between atoms: _72  and  _74
REMARK   32  A    between atoms: _74  and  _75
REMARK   33  A    between atoms: _74  and  _77
REMARK   34  A    between atoms: _77  and  _78
REMARK   35  A    between atoms: _78  and  _79
REMARK   36  A    between atoms: _79  and  _80
REMARK   37  A    between atoms: _80  and  _81
REMARK   38  A    between atoms: _85  and  _87
REMARK   39  A    between atoms: _87  and  _88
REMARK   40  A    between atoms: _87  and  _90
REMARK   41  A    between atoms: _90  and  _91
REMARK   42  A    between atoms: _97  and  _99
REMARK   43  A    between atoms: _99  and  _100
REMARK   44  A    between atoms: _102  and  _104
REMARK   45  A    between atoms: _104  and  _105
REMARK   46  A    between atoms: _104  and  _107
REMARK   47  A    between atoms: _107  and  _108
REMARK   48  A    between atoms: _110  and  _112
REMARK   49  A    between atoms: _112  and  _113
REMARK   50  A    between atoms: _112  and  _115
REMARK   51  A    between atoms: _115  and  _116
REMARK   52  A    between atoms: _126  and  _128
REMARK   53  A    between atoms: _128  and  _129
REMARK   54  A    between atoms: _128  and  _131
REMARK   55  A    between atoms: _134  and  _136
REMARK   56  A    between atoms: _136  and  _137
REMARK   57  A    between atoms: _136  and  _139
REMARK   58  A    between atoms: _139  and  _140
REMARK   59  A    between atoms: _145  and  _146
REMARK   60  A    between atoms: _148  and  _150
REMARK   61  A    between atoms: _150  and  _151
REMARK   62  A    between atoms: _150  and  _153
REMARK   63  A    between atoms: _153  and  _154
REMARK   64  A    between atoms: _156  and  _158
REMARK   65  A    between atoms: _158  and  _159
REMARK   66  A    between atoms: _158  and  _161
REMARK   67  A    between atoms: _161  and  _162
REMARK   68  A    between atoms: _162  and  _163
REMARK   69  A    between atoms: _166  and  _168
REMARK   70  A    between atoms: _168  and  _169
REMARK   71  A    between atoms: _168  and  _171
REMARK   72  A    between atoms: _171  and  _172
REMARK   73  A    between atoms: _175  and  _177
REMARK   74  A    between atoms: _177  and  _178
REMARK   75  A    between atoms: _177  and  _180
REMARK   76  A    between atoms: _180  and  _181
REMARK   77  A    between atoms: _181  and  _182
REMARK   78  A    between atoms: _187  and  _189
REMARK   79  A    between atoms: _189  and  _190
REMARK   80  A    between atoms: _189  and  _192
REMARK   81  A    between atoms: _192  and  _193
REMARK   82  A    between atoms: _193  and  _194
REMARK   83  A    between atoms: _199  and  _201
REMARK   84  A    between atoms: _201  and  _202
REMARK   85  A    between atoms: _201  and  _204
REMARK   86  A    between atoms: _204  and  _205
REMARK   87  A    between atoms: _210  and  _212
REMARK   88  A    between atoms: _212  and  _213
REMARK   89  A    between atoms: _212  and  _215
REMARK   90  A    between atoms: _215  and  _216
REMARK   91  A    between atoms: _221  and  _222
REMARK   92  A    between atoms: _224  and  _226
REMARK   93  A    between atoms: _226  and  _227
REMARK   94  A    between atoms: _226  and  _229
REMARK   95  A    between atoms: _229  and  _230
REMARK   96  A    between atoms: _232  and  _234
REMARK   97  A    between atoms: _241  and  _242
REMARK   98  A    between atoms: _247  and  _248
REMARK   99  A    between atoms: _253  and  _255
REMARK  100  A    between atoms: _255  and  _256
REMARK  101  A    between atoms: _255  and  _258
REMARK  102  A    between atoms: _258  and  _259
REMARK  103  A    between atoms: _259  and  _260
REMARK  104  A    between atoms: _264  and  _265
REMARK  105  A    between atoms: _270  and  _272
REMARK  106  A    between atoms: _272  and  _273
REMARK  107  A    between atoms: _272  and  _275
REMARK  108  A    between atoms: _275  and  _276
REMARK  109  A    between atoms: _281  and  _282
REMARK  110  A    between atoms: _284  and  _286
REMARK  111  A    between atoms: _286  and  _287
REMARK  112  A    between atoms: _286  and  _289
REMARK  113  A    between atoms: _289  and  _290
REMARK  114  A    between atoms: _293  and  _295
REMARK  115  A    between atoms: _295  and  _296
REMARK  116  A    between atoms: _295  and  _298
REMARK  117  A    between atoms: _298  and  _299
REMARK  118  A    between atoms: _302  and  _304
REMARK  119  A    between atoms: _304  and  _305
REMARK  120  A    between atoms: _304  and  _307
REMARK  121  A    between atoms: _310  and  _312
REMARK  122  A    between atoms: _312  and  _313
REMARK  123  A    between atoms: _312  and  _315
REMARK  124  A    between atoms: _315  and  _316
REMARK  125  A    between atoms: _321  and  _323
REMARK  126  A    between atoms: _323  and  _324
REMARK  127  A    between atoms: _323  and  _326
REMARK  128  A    between atoms: _326  and  _327
REMARK  129  A    between atoms: _330  and  _332
REMARK  130  A    between atoms: _332  and  _333
REMARK  131  A    between atoms: _332  and  _335
REMARK  132  A    between atoms: _335  and  _336
REMARK  133  A    between atoms: _336  and  _337
REMARK  134  A    between atoms: _342  and  _344
REMARK  135  A    between atoms: _344  and  _345
REMARK  136  A    between atoms: _344  and  _347
REMARK  137  A    between atoms: _347  and  _348
REMARK  138  A    between atoms: _353  and  _354
REMARK  139  A    between atoms: _356  and  _358
REMARK  140  A    between atoms: _358  and  _359
REMARK  141  A    between atoms: _358  and  _361
REMARK  142  A    between atoms: _361  and  _362
REMARK  143  A    between atoms: _362  and  _363
REMARK  144  A    between atoms: _366  and  _368
REMARK  145  A    between atoms: _368  and  _369
REMARK  146  A    between atoms: _368  and  _371
REMARK  147  A    between atoms: _371  and  _372
REMARK  148  A    between atoms: _372  and  _373
REMARK  149  A    between atoms: _378  and  _380
REMARK  150  A    between atoms: _380  and  _381
REMARK  151  A    between atoms: _380  and  _383
REMARK  152  A    between atoms: _383  and  _384
REMARK  153  A    between atoms: _384  and  _385
REMARK  154  A    between atoms: _390  and  _392
REMARK  155  A    between atoms: _392  and  _393
REMARK  156  A    between atoms: _392  and  _395
REMARK  157  A    between atoms: _395  and  _396
REMARK  158  A    between atoms: _396  and  _397
REMARK  159  A    between atoms: _397  and  _398
REMARK  160  A    between atoms: _407  and  _409
REMARK  161  A    between atoms: _409  and  _410
REMARK  162  A    between atoms: _409  and  _412
REMARK  163  A    between atoms: _412  and  _413
REMARK  164  A    between atoms: _416  and  _418
REMARK  165  A    between atoms: _418  and  _419
REMARK  166  A    between atoms: _418  and  _421
REMARK  167  A    between atoms: _421  and  _422
REMARK  168  A    between atoms: _428  and  _430
REMARK  169  A    between atoms: _430  and  _431
REMARK  170  A    between atoms: _430  and  _433
REMARK  171  A    between atoms: _433  and  _434
REMARK  172  A    between atoms: _434  and  _435
REMARK  173  A    between atoms: _435  and  _436
REMARK  174  A    between atoms: _445  and  _447
REMARK  175  A    between atoms: _447  and  _448
REMARK  176  A    between atoms: _447  and  _450
REMARK  177  A    between atoms: _450  and  _451
REMARK  178  A    between atoms: _454  and  _456
REMARK  179  A    between atoms: _456  and  _457
REMARK  180  A    between atoms: _456  and  _459
REMARK  181  A    between atoms: _459  and  _460
REMARK  182  A    between atoms: _463  and  _464
REMARK  183  A    between atoms: _469  and  _471
REMARK  184  A    between atoms: _471  and  _472
REMARK  185  A    between atoms: _471  and  _474
REMARK  186  A    between atoms: _474  and  _475
REMARK  187  A    between atoms: _478  and  _480
REMARK  188  A    between atoms: _480  and  _481
REMARK  189  A    between atoms: _484  and  _486
REMARK  190  A    between atoms: _486  and  _487
REMARK  191  A    between atoms: _486  and  _489
REMARK  192  A    between atoms: _492  and  _494
REMARK  193  A    between atoms: _494  and  _495
REMARK  194  A    between atoms: _494  and  _497
REMARK  195  A    between atoms: _500  and  _502
REMARK  196  A    between atoms: _502  and  _503
REMARK  197  A    between atoms: _502  and  _505
REMARK  198  A    between atoms: _505  and  _506
REMARK  199  A    between atoms: _509  and  _511
REMARK  200  A    between atoms: _511  and  _512
REMARK  201  A    between atoms: _511  and  _514
REMARK  202  A    between atoms: _517  and  _519
REMARK  203  A    between atoms: _519  and  _520
REMARK  204  A    between atoms: _519  and  _522
REMARK  205  A    between atoms: _522  and  _523
REMARK  206  A    between atoms: _523  and  _524
REMARK  207  A    between atoms: _526  and  _528
REMARK  208  A    between atoms: _528  and  _529
REMARK  209  A    between atoms: _528  and  _531
REMARK  210  A    between atoms: _531  and  _532
REMARK  211  A    between atoms: _538  and  _540
REMARK  212  A    between atoms: _540  and  _541
REMARK  213  A    between atoms: _540  and  _543
REMARK  214  A    between atoms: _543  and  _544
REMARK  215  A    between atoms: _548  and  _549
REMARK  216  A    between atoms: _554  and  _556
REMARK  217  A    between atoms: _556  and  _557
REMARK  218  A    between atoms: _560  and  _562
REMARK  219  A    between atoms: _562  and  _563
REMARK  220  A    between atoms: _562  and  _565
REMARK  221  A    between atoms: _565  and  _566
REMARK                            x       y       z     vdW  Elec       q    Type
REMARK                         _______ _______ _______ _____ _____    ______ ____
ROOT
ATOM      1  O   HOH     1     -11.835  25.283   6.104  0.00  0.00    +0.000 OA
ENDROOT
TORSDOF 0
REMARK  Name = ../refined-set-2016/2bys/2bys_pocket.pdb
REMARK  221 active torsions:
REMARK  status: ('A' for Active; 'I' for Inactive)
REMARK    1  A    between atoms: _1  and  _3
REMARK    2  A    between atoms: _3  and  _4
REMARK    3  A    between atoms: _3  and  _6
REMARK    4  A    between atoms: _6  and  _7
REMARK    5  A    between atoms: _10  and  _12
REMARK    6  A    between atoms: _12  and  _13
REMARK    7  A    between atoms: _12  and  _15
REMARK    8  A    between atoms: _15  and  _16
REMARK    9  A    between atoms: _19  and  _21
REMARK   10  A    between atoms: _21  and  _22
REMARK   11  A    between atoms: _21  and  _24
REMARK   12  A    between atoms: _24  and  _25
REMARK   13  A    between atoms: _28  and  _30
REMARK   14  A    between atoms: _30  and  _31
REMARK   15  A    between atoms: _34  and  _36
REMARK   16  A    between atoms: _36  and  _37
REMARK   17  A    between atoms: _36  and  _39
REMARK   18  A    between atoms: _39  and  _40
REMARK   19  A    between atoms: _45  and  _46
REMARK   20  A    between atoms: _48  and  _50
REMARK   21  A    between atoms: _50  and  _51
REMARK   22  A    between atoms: _50  and  _53
REMARK   23  A    between atoms: _53  and  _54
REMARK   24  A    between atoms: _56  and  _58
REMARK   25  A    between atoms: _58  and  _59
REMARK   26  A    between atoms: _58  and  _61
REMARK   27  A    between atoms: _61  and  _62
REMARK   28  A    between atoms: _64  and  _66
REMARK   29  A    between atoms: _66  and  _67
REMARK   30  A    between atoms: _66  and  _69
REMARK   31  A    between atoms: _72  and  _74
REMARK   32  A    between atoms: _74  and  _75
REMARK   33  A    between atoms: _74  and  _77
REMARK   34  A    between atoms: _77  and  _78
REMARK   35  A    between atoms: _78  and  _79
REMARK   36  A    between atoms: _79  and  _80
REMARK   37  A    between atoms: _80  and  _81
REMARK   38  A    between atoms: _85  and  _87
REMARK   39  A    between atoms: _87  and  _88
REMARK   40  A    between atoms: _87  and  _90
REMARK   41  A    between atoms: _90  and  _91
REMARK   42  A    between atoms: _97  and  _99
REMARK   43  A    between atoms: _99  and  _100
REMARK   44  A    between atoms: _102  and  _104
REMARK   45  A    between atoms: _104  and  _105
REMARK   46  A    between atoms: _104  and  _107
REMARK   47  A    between atoms: _107  and  _108
REMARK   48  A    between atoms: _110  and  _112
REMARK   49  A    between atoms: _112  and  _113
REMARK   50  A    between atoms: _112  and  _115
REMARK   51  A    between atoms: _115  and  _116
REMARK   52  A    between atoms: _126  and  _128
REMARK   53  A    between atoms: _128  and  _129
REMARK   54  A    between atoms: _128  and  _131
REMARK   55  A    between atoms: _134  and  _136
REMARK   56  A    between atoms: _136  and  _137
REMARK   57  A    between atoms: _136  and  _139
REMARK   58  A    between atoms: _139  and  _140
REMARK   59  A    between atoms: _145  and  _146
REMARK   60  A    between atoms: _148  and  _150
REMARK   61  A    between atoms: _150  and  _151
REMARK   62  A    between atoms: _150  and  _153
REMARK   63  A    between atoms: _153  and  _154
REMARK   64  A    between atoms: _156  and  _158
REMARK   65  A    between atoms: _158  and  _159
REMARK   66  A    between atoms: _158  and  _161
REMARK   67  A    between atoms: _161  and  _162
REMARK   68  A    between atoms: _162  and  _163
REMARK   69  A    between atoms: _166  and  _168
REMARK   70  A    between atoms: _168  and  _169
REMARK   71  A    between atoms: _168  and  _171
REMARK   72  A    between atoms: _171  and  _172
REMARK   73  A    between atoms: _175  and  _177
REMARK   74  A    between atoms: _177  and  _178
REMARK   75  A    between atoms: _177  and  _180
REMARK   76  A    between atoms: _180  and  _181
REMARK   77  A    between atoms: _181  and  _182
REMARK   78  A    between atoms: _187  and  _189
REMARK   79  A    between atoms: _189  and  _190
REMARK   80  A    between atoms: _189  and  _192
REMARK   81  A    between atoms: _192  and  _193
REMARK   82  A    between atoms: _193  and  _194
REMARK   83  A    between atoms: _199  and  _201
REMARK   84  A    between atoms: _201  and  _202
REMARK   85  A    between atoms: _201  and  _204
REMARK   86  A    between atoms: _204  and  _205
REMARK   87  A    between atoms: _210  and  _212
REMARK   88  A    between atoms: _212  and  _213
REMARK   89  A    between atoms: _212  and  _215
REMARK   90  A    between atoms: _215  and  _216
REMARK   91  A    between atoms: _221  and  _222
REMARK   92  A    between atoms: _224  and  _226
REMARK   93  A    between atoms: _226  and  _227
REMARK   94  A    between atoms: _226  and  _229
REMARK   95  A    between atoms: _229  and  _230
REMARK   96  A    between atoms: _232  and  _234
REMARK   97  A    between atoms: _241  and  _242
REMARK   98  A    between atoms: _247  and  _248
REMARK   99  A    between atoms: _253  and  _255
REMARK  100  A    between atoms: _255  and  _256
REMARK  101  A    between atoms: _255  and  _258
REMARK  102  A    between atoms: _258  and  _259
REMARK  103  A    between atoms: _259  and  _260
REMARK  104  A    between atoms: _264  and  _265
REMARK  105  A    between atoms: _270  and  _272
REMARK  106  A    between atoms: _272  and  _273
REMARK  107  A    between atoms: _272  and  _275
REMARK  108  A    between atoms: _275  and  _276
REMARK  109  A    between atoms: _281  and  _282
REMARK  110  A    between atoms: _284  and  _286
REMARK  111  A    between atoms: _286  and  _287
REMARK  112  A    between atoms: _286  and  _289
REMARK  113  A    between atoms: _289  and  _290
REMARK  114  A    between atoms: _293  and  _295
REMARK  115  A    between atoms: _295  and  _296
REMARK  116  A    between atoms: _295  and  _298
REMARK  117  A    between atoms: _298  and  _299
REMARK  118  A    between atoms: _302  and  _304
REMARK  119  A    between atoms: _304  and  _305
REMARK  120  A    between atoms: _304  and  _307
REMARK  121  A    between atoms: _310  and  _312
REMARK  122  A    between atoms: _312  and  _313
REMARK  123  A    between atoms: _312  and  _315
REMARK  124  A    between atoms: _315  and  _316
REMARK  125  A    between atoms: _321  and  _323
REMARK  126  A    between atoms: _323  and  _324
REMARK  127  A    between atoms: _323  and  _326
REMARK  128  A    between atoms: _326  and  _327
REMARK  129  A    between atoms: _330  and  _332
REMARK  130  A    between atoms: _332  and  _333
REMARK  131  A    between atoms: _332  and  _335
REMARK  132  A    between atoms: _335  and  _336
REMARK  133  A    between atoms: _336  and  _337
REMARK  134  A    between atoms: _342  and  _344
REMARK  135  A    between atoms: _344  and  _345
REMARK  136  A    between atoms: _344  and  _347
REMARK  137  A    between atoms: _347  and  _348
REMARK  138  A    between atoms: _353  and  _354
REMARK  139  A    between atoms: _356  and  _358
REMARK  140  A    between atoms: _358  and  _359
REMARK  141  A    between atoms: _358  and  _361
REMARK  142  A    between atoms: _361  and  _362
REMARK  143  A    between atoms: _362  and  _363
REMARK  144  A    between atoms: _366  and  _368
REMARK  145  A    between atoms: _368  and  _369
REMARK  146  A    between atoms: _368  and  _371
REMARK  147  A    between atoms: _371  and  _372
REMARK  148  A    between atoms: _372  and  _373
REMARK  149  A    between atoms: _378  and  _380
REMARK  150  A    between atoms: _380  and  _381
REMARK  151  A    between atoms: _380  and  _383
REMARK  152  A    between atoms: _383  and  _384
REMARK  153  A    between atoms: _384  and  _385
REMARK  154  A    between atoms: _390  and  _392
REMARK  155  A    between atoms: _392  and  _393
REMARK  156  A    between atoms: _392  and  _395
REMARK  157  A    between atoms: _395  and  _396
REMARK  158  A    between atoms: _396  and  _397
REMARK  159  A    between atoms: _397  and  _398
REMARK  160  A    between atoms: _407  and  _409
REMARK  161  A    between atoms: _409  and  _410
REMARK  162  A    between atoms: _409  and  _412
REMARK  163  A    between atoms: _412  and  _413
REMARK  164  A    between atoms: _416  and  _418
REMARK  165  A    between atoms: _418  and  _419
REMARK  166  A    between atoms: _418  and  _421
REMARK  167  A    between atoms: _421  and  _422
REMARK  168  A    between atoms: _428  and  _430
REMARK  169  A    between atoms: _430  and  _431
REMARK  170  A    between atoms: _430  and  _433
REMARK  171  A    between atoms: _433  and  _434
REMARK  172  A    between atoms: _434  and  _435
REMARK  173  A    between atoms: _435  and  _436
REMARK  174  A    between atoms: _445  and  _447
REMARK  175  A    between atoms: _447  and  _448
REMARK  176  A    between atoms: _447  and  _450
REMARK  177  A    between atoms: _450  and  _451
REMARK  178  A    between atoms: _454  and  _456
REMARK  179  A    between atoms: _456  and  _457
REMARK  180  A    between atoms: _456  and  _459
REMARK  181  A    between atoms: _459  and  _460
REMARK  182  A    between atoms: _463  and  _464
REMARK  183  A    between atoms: _469  and  _471
REMARK  184  A    between atoms: _471  and  _472
REMARK  185  A    between atoms: _471  and  _474
REMARK  186  A    between atoms: _474  and  _475
REMARK  187  A    between atoms: _478  and  _480
REMARK  188  A    between atoms: _480  and  _481
REMARK  189  A    between atoms: _484  and  _486
REMARK  190  A    between atoms: _486  and  _487
REMARK  191  A    between atoms: _486  and  _489
REMARK  192  A    between atoms: _492  and  _494
REMARK  193  A    between atoms: _494  and  _495
REMARK  194  A    between atoms: _494  and  _497
REMARK  195  A    between atoms: _500  and  _502
REMARK  196  A    between atoms: _502  and  _503
REMARK  197  A    between atoms: _502  and  _505
REMARK  198  A    between atoms: _505  and  _506
REMARK  199  A    between atoms: _509  and  _511
REMARK  200  A    between atoms: _511  and  _512
REMARK  201  A    between atoms: _511  and  _514
REMARK  202  A    between atoms: _517  and  _519
REMARK  203  A    between atoms: _519  and  _520
REMARK  204  A    between atoms: _519  and  _522
REMARK  205  A    between atoms: _522  and  _523
REMARK  206  A    between atoms: _523  and  _524
REMARK  207  A    between atoms: _526  and  _528
REMARK  208  A    between atoms: _528  and  _529
REMARK  209  A    between atoms: _528  and  _531
REMARK  210  A    between atoms: _531  and  _532
REMARK  211  A    between atoms: _538  and  _540
REMARK  212  A    between atoms: _540  and  _541
REMARK  213  A    between atoms: _540  and  _543
REMARK  214  A    between atoms: _543  and  _544
REMARK  215  A    between atoms: _548  and  _549
REMARK  216  A    between atoms: _554  and  _556
REMARK  217  A    between atoms: _556  and  _557
REMARK  218  A    between atoms: _560  and  _562
REMARK  219  A    between atoms: _562  and  _563
REMARK  220  A    between atoms: _562  and  _565
REMARK  221  A    between atoms: _565  and  _566
REMARK                            x       y       z     vdW  Elec       q    Type
REMARK                         _______ _______ _______ _____ _____    ______ ____
ROOT
ATOM      1  O   HOH     1      -7.381  30.116  10.907  0.00  0.00    +0.000 OA
ENDROOT
TORSDOF 0
REMARK  Name = ../refined-set-2016/2bys/2bys_pocket.pdb
REMARK  221 active torsions:
REMARK  status: ('A' for Active; 'I' for Inactive)
REMARK    1  A    between atoms: _1  and  _3
REMARK    2  A    between atoms: _3  and  _4
REMARK    3  A    between atoms: _3  and  _6
REMARK    4  A    between atoms: _6  and  _7
REMARK    5  A    between atoms: _10  and  _12
REMARK    6  A    between atoms: _12  and  _13
REMARK    7  A    between atoms: _12  and  _15
REMARK    8  A    between atoms: _15  and  _16
REMARK    9  A    between atoms: _19  and  _21
REMARK   10  A    between atoms: _21  and  _22
REMARK   11  A    between atoms: _21  and  _24
REMARK   12  A    between atoms: _24  and  _25
REMARK   13  A    between atoms: _28  and  _30
REMARK   14  A    between atoms: _30  and  _31
REMARK   15  A    between atoms: _34  and  _36
REMARK   16  A    between atoms: _36  and  _37
REMARK   17  A    between atoms: _36  and  _39
REMARK   18  A    between atoms: _39  and  _40
REMARK   19  A    between atoms: _45  and  _46
REMARK   20  A    between atoms: _48  and  _50
REMARK   21  A    between atoms: _50  and  _51
REMARK   22  A    between atoms: _50  and  _53
REMARK   23  A    between atoms: _53  and  _54
REMARK   24  A    between atoms: _56  and  _58
REMARK   25  A    between atoms: _58  and  _59
REMARK   26  A    between atoms: _58  and  _61
REMARK   27  A    between atoms: _61  and  _62
REMARK   28  A    between atoms: _64  and  _66
REMARK   29  A    between atoms: _66  and  _67
REMARK   30  A    between atoms: _66  and  _69
REMARK   31  A    between atoms: _72  and  _74
REMARK   32  A    between atoms: _74  and  _75
REMARK   33  A    between atoms: _74  and  _77
REMARK   34  A    between atoms: _77  and  _78
REMARK   35  A    between atoms: _78  and  _79
REMARK   36  A    between atoms: _79  and  _80
REMARK   37  A    between atoms: _80  and  _81
REMARK   38  A    between atoms: _85  and  _87
REMARK   39  A    between atoms: _87  and  _88
REMARK   40  A    between atoms: _87  and  _90
REMARK   41  A    between atoms: _90  and  _91
REMARK   42  A    between atoms: _97  and  _99
REMARK   43  A    between atoms: _99  and  _100
REMARK   44  A    between atoms: _102  and  _104
REMARK   45  A    between atoms: _104  and  _105
REMARK   46  A    between atoms: _104  and  _107
REMARK   47  A    between atoms: _107  and  _108
REMARK   48  A    between atoms: _110  and  _112
REMARK   49  A    between atoms: _112  and  _113
REMARK   50  A    between atoms: _112  and  _115
REMARK   51  A    between atoms: _115  and  _116
REMARK   52  A    between atoms: _126  and  _128
REMARK   53  A    between atoms: _128  and  _129
REMARK   54  A    between atoms: _128  and  _131
REMARK   55  A    between atoms: _134  and  _136
REMARK   56  A    between atoms: _136  and  _137
REMARK   57  A    between atoms: _136  and  _139
REMARK   58  A    between atoms: _139  and  _140
REMARK   59  A    between atoms: _145  and  _146
REMARK   60  A    between atoms: _148  and  _150
REMARK   61  A    between atoms: _150  and  _151
REMARK   62  A    between atoms: _150  and  _153
REMARK   63  A    between atoms: _153  and  _154
REMARK   64  A    between atoms: _156  and  _158
REMARK   65  A    between atoms: _158  and  _159
REMARK   66  A    between atoms: _158  and  _161
REMARK   67  A    between atoms: _161  and  _162
REMARK   68  A    between atoms: _162  and  _163
REMARK   69  A    between atoms: _166  and  _168
REMARK   70  A    between atoms: _168  and  _169
REMARK   71  A    between atoms: _168  and  _171
REMARK   72  A    between atoms: _171  and  _172
REMARK   73  A    between atoms: _175  and  _177
REMARK   74  A    between atoms: _177  and  _178
REMARK   75  A    between atoms: _177  and  _180
REMARK   76  A    between atoms: _180  and  _181
REMARK   77  A    between atoms: _181  and  _182
REMARK   78  A    between atoms: _187  and  _189
REMARK   79  A    between atoms: _189  and  _190
REMARK   80  A    between atoms: _189  and  _192
REMARK   81  A    between atoms: _192  and  _193
REMARK   82  A    between atoms: _193  and  _194
REMARK   83  A    between atoms: _199  and  _201
REMARK   84  A    between atoms: _201  and  _202
REMARK   85  A    between atoms: _201  and  _204
REMARK   86  A    between atoms: _204  and  _205
REMARK   87  A    between atoms: _210  and  _212
REMARK   88  A    between atoms: _212  and  _213
REMARK   89  A    between atoms: _212  and  _215
REMARK   90  A    between atoms: _215  and  _216
REMARK   91  A    between atoms: _221  and  _222
REMARK   92  A    between atoms: _224  and  _226
REMARK   93  A    between atoms: _226  and  _227
REMARK   94  A    between atoms: _226  and  _229
REMARK   95  A    between atoms: _229  and  _230
REMARK   96  A    between atoms: _232  and  _234
REMARK   97  A    between atoms: _241  and  _242
REMARK   98  A    between atoms: _247  and  _248
REMARK   99  A    between atoms: _253  and  _255
REMARK  100  A    between atoms: _255  and  _256
REMARK  101  A    between atoms: _255  and  _258
REMARK  102  A    between atoms: _258  and  _259
REMARK  103  A    between atoms: _259  and  _260
REMARK  104  A    between atoms: _264  and  _265
REMARK  105  A    between atoms: _270  and  _272
REMARK  106  A    between atoms: _272  and  _273
REMARK  107  A    between atoms: _272  and  _275
REMARK  108  A    between atoms: _275  and  _276
REMARK  109  A    between atoms: _281  and  _282
REMARK  110  A    between atoms: _284  and  _286
REMARK  111  A    between atoms: _286  and  _287
REMARK  112  A    between atoms: _286  and  _289
REMARK  113  A    between atoms: _289  and  _290
REMARK  114  A    between atoms: _293  and  _295
REMARK  115  A    between atoms: _295  and  _296
REMARK  116  A    between atoms: _295  and  _298
REMARK  117  A    between atoms: _298  and  _299
REMARK  118  A    between atoms: _302  and  _304
REMARK  119  A    between atoms: _304  and  _305
REMARK  120  A    between atoms: _304  and  _307
REMARK  121  A    between atoms: _310  and  _312
REMARK  122  A    between atoms: _312  and  _313
REMARK  123  A    between atoms: _312  and  _315
REMARK  124  A    between atoms: _315  and  _316
REMARK  125  A    between atoms: _321  and  _323
REMARK  126  A    between atoms: _323  and  _324
REMARK  127  A    between atoms: _323  and  _326
REMARK  128  A    between atoms: _326  and  _327
REMARK  129  A    between atoms: _330  and  _332
REMARK  130  A    between atoms: _332  and  _333
REMARK  131  A    between atoms: _332  and  _335
REMARK  132  A    between atoms: _335  and  _336
REMARK  133  A    between atoms: _336  and  _337
REMARK  134  A    between atoms: _342  and  _344
REMARK  135  A    between atoms: _344  and  _345
REMARK  136  A    between atoms: _344  and  _347
REMARK  137  A    between atoms: _347  and  _348
REMARK  138  A    between atoms: _353  and  _354
REMARK  139  A    between atoms: _356  and  _358
REMARK  140  A    between atoms: _358  and  _359
REMARK  141  A    between atoms: _358  and  _361
REMARK  142  A    between atoms: _361  and  _362
REMARK  143  A    between atoms: _362  and  _363
REMARK  144  A    between atoms: _366  and  _368
REMARK  145  A    between atoms: _368  and  _369
REMARK  146  A    between atoms: _368  and  _371
REMARK  147  A    between atoms: _371  and  _372
REMARK  148  A    between atoms: _372  and  _373
REMARK  149  A    between atoms: _378  and  _380
REMARK  150  A    between atoms: _380  and  _381
REMARK  151  A    between atoms: _380  and  _383
REMARK  152  A    between atoms: _383  and  _384
REMARK  153  A    between atoms: _384  and  _385
REMARK  154  A    between atoms: _390  and  _392
REMARK  155  A    between atoms: _392  and  _393
REMARK  156  A    between atoms: _392  and  _395
REMARK  157  A    between atoms: _395  and  _396
REMARK  158  A    between atoms: _396  and  _397
REMARK  159  A    between atoms: _397  and  _398
REMARK  160  A    between atoms: _407  and  _409
REMARK  161  A    between atoms: _409  and  _410
REMARK  162  A    between atoms: _409  and  _412
REMARK  163  A    between atoms: _412  and  _413
REMARK  164  A    between atoms: _416  and  _418
REMARK  165  A    between atoms: _418  and  _419
REMARK  166  A    between atoms: _418  and  _421
REMARK  167  A    between atoms: _421  and  _422
REMARK  168  A    between atoms: _428  and  _430
REMARK  169  A    between atoms: _430  and  _431
REMARK  170  A    between atoms: _430  and  _433
REMARK  171  A    between atoms: _433  and  _434
REMARK  172  A    between atoms: _434  and  _435
REMARK  173  A    between atoms: _435  and  _436
REMARK  174  A    between atoms: _445  and  _447
REMARK  175  A    between atoms: _447  and  _448
REMARK  176  A    between atoms: _447  and  _450
REMARK  177  A    between atoms: _450  and  _451
REMARK  178  A    between atoms: _454  and  _456
REMARK  179  A    between atoms: _456  and  _457
REMARK  180  A    between atoms: _456  and  _459
REMARK  181  A    between atoms: _459  and  _460
REMARK  182  A    between atoms: _463  and  _464
REMARK  183  A    between atoms: _469  and  _471
REMARK  184  A    between atoms: _471  and  _472
REMARK  185  A    between atoms: _471  and  _474
REMARK  186  A    between atoms: _474  and  _475
REMARK  187  A    between atoms: _478  and  _480
REMARK  188  A    between atoms: _480  and  _481
REMARK  189  A    between atoms: _484  and  _486
REMARK  190  A    between atoms: _486  and  _487
REMARK  191  A    between atoms: _486  and  _489
REMARK  192  A    between atoms: _492  and  _494
REMARK  193  A    between atoms: _494  and  _495
REMARK  194  A    between atoms: _494  and  _497
REMARK  195  A    between atoms: _500  and  _502
REMARK  196  A    between atoms: _502  and  _503
REMARK  197  A    between atoms: _502  and  _505
REMARK  198  A    between atoms: _505  and  _506
REMARK  199  A    between atoms: _509  and  _511
REMARK  200  A    between atoms: _511  and  _512
REMARK  201  A    between atoms: _511  and  _514
REMARK  202  A    between atoms: _517  and  _519
REMARK  203  A    between atoms: _519  and  _520
REMARK  204  A    between atoms: _519  and  _522
REMARK  205  A    between atoms: _522  and  _523
REMARK  206  A    between atoms: _523  and  _524
REMARK  207  A    between atoms: _526  and  _528
REMARK  208  A    between atoms: _528  and  _529
REMARK  209  A    between atoms: _528  and  _531
REMARK  210  A    between atoms: _531  and  _532
REMARK  211  A    between atoms: _538  and  _540
REMARK  212  A    between atoms: _540  and  _541
REMARK  213  A    between atoms: _540  and  _543
REMARK  214  A    between atoms: _543  and  _544
REMARK  215  A    between atoms: _548  and  _549
REMARK  216  A    between atoms: _554  and  _556
REMARK  217  A    between atoms: _556  and  _557
REMARK  218  A    between atoms: _560  and  _562
REMARK  219  A    between atoms: _562  and  _563
REMARK  220  A    between atoms: _562  and  _565
REMARK  221  A    between atoms: _565  and  _566
REMARK                            x       y       z     vdW  Elec       q    Type
REMARK                         _______ _______ _______ _____ _____    ______ ____
ROOT
ATOM      1  O   HOH     1      -4.950  30.653   9.373  0.00  0.00    +0.000 OA
ENDROOT
TORSDOF 0
REMARK  Name = ../refined-set-2016/2bys/2bys_pocket.pdb
REMARK  221 active torsions:
REMARK  status: ('A' for Active; 'I' for Inactive)
REMARK    1  A    between atoms: _1  and  _3
REMARK    2  A    between atoms: _3  and  _4
REMARK    3  A    between atoms: _3  and  _6
REMARK    4  A    between atoms: _6  and  _7
REMARK    5  A    between atoms: _10  and  _12
REMARK    6  A    between atoms: _12  and  _13
REMARK    7  A    between atoms: _12  and  _15
REMARK    8  A    between atoms: _15  and  _16
REMARK    9  A    between atoms: _19  and  _21
REMARK   10  A    between atoms: _21  and  _22
REMARK   11  A    between atoms: _21  and  _24
REMARK   12  A    between atoms: _24  and  _25
REMARK   13  A    between atoms: _28  and  _30
REMARK   14  A    between atoms: _30  and  _31
REMARK   15  A    between atoms: _34  and  _36
REMARK   16  A    between atoms: _36  and  _37
REMARK   17  A    between atoms: _36  and  _39
REMARK   18  A    between atoms: _39  and  _40
REMARK   19  A    between atoms: _45  and  _46
REMARK   20  A    between atoms: _48  and  _50
REMARK   21  A    between atoms: _50  and  _51
REMARK   22  A    between atoms: _50  and  _53
REMARK   23  A    between atoms: _53  and  _54
REMARK   24  A    between atoms: _56  and  _58
REMARK   25  A    between atoms: _58  and  _59
REMARK   26  A    between atoms: _58  and  _61
REMARK   27  A    between atoms: _61  and  _62
REMARK   28  A    between atoms: _64  and  _66
REMARK   29  A    between atoms: _66  and  _67
REMARK   30  A    between atoms: _66  and  _69
REMARK   31  A    between atoms: _72  and  _74
REMARK   32  A    between atoms: _74  and  _75
REMARK   33  A    between atoms: _74  and  _77
REMARK   34  A    between atoms: _77  and  _78
REMARK   35  A    between atoms: _78  and  _79
REMARK   36  A    between atoms: _79  and  _80
REMARK   37  A    between atoms: _80  and  _81
REMARK   38  A    between atoms: _85  and  _87
REMARK   39  A    between atoms: _87  and  _88
REMARK   40  A    between atoms: _87  and  _90
REMARK   41  A    between atoms: _90  and  _91
REMARK   42  A    between atoms: _97  and  _99
REMARK   43  A    between atoms: _99  and  _100
REMARK   44  A    between atoms: _102  and  _104
REMARK   45  A    between atoms: _104  and  _105
REMARK   46  A    between atoms: _104  and  _107
REMARK   47  A    between atoms: _107  and  _108
REMARK   48  A    between atoms: _110  and  _112
REMARK   49  A    between atoms: _112  and  _113
REMARK   50  A    between atoms: _112  and  _115
REMARK   51  A    between atoms: _115  and  _116
REMARK   52  A    between atoms: _126  and  _128
REMARK   53  A    between atoms: _128  and  _129
REMARK   54  A    between atoms: _128  and  _131
REMARK   55  A    between atoms: _134  and  _136
REMARK   56  A    between atoms: _136  and  _137
REMARK   57  A    between atoms: _136  and  _139
REMARK   58  A    between atoms: _139  and  _140
REMARK   59  A    between atoms: _145  and  _146
REMARK   60  A    between atoms: _148  and  _150
REMARK   61  A    between atoms: _150  and  _151
REMARK   62  A    between atoms: _150  and  _153
REMARK   63  A    between atoms: _153  and  _154
REMARK   64  A    between atoms: _156  and  _158
REMARK   65  A    between atoms: _158  and  _159
REMARK   66  A    between atoms: _158  and  _161
REMARK   67  A    between atoms: _161  and  _162
REMARK   68  A    between atoms: _162  and  _163
REMARK   69  A    between atoms: _166  and  _168
REMARK   70  A    between atoms: _168  and  _169
REMARK   71  A    between atoms: _168  and  _171
REMARK   72  A    between atoms: _171  and  _172
REMARK   73  A    between atoms: _175  and  _177
REMARK   74  A    between atoms: _177  and  _178
REMARK   75  A    between atoms: _177  and  _180
REMARK   76  A    between atoms: _180  and  _181
REMARK   77  A    between atoms: _181  and  _182
REMARK   78  A    between atoms: _187  and  _189
REMARK   79  A    between atoms: _189  and  _190
REMARK   80  A    between atoms: _189  and  _192
REMARK   81  A    between atoms: _192  and  _193
REMARK   82  A    between atoms: _193  and  _194
REMARK   83  A    between atoms: _199  and  _201
REMARK   84  A    between atoms: _201  and  _202
REMARK   85  A    between atoms: _201  and  _204
REMARK   86  A    between atoms: _204  and  _205
REMARK   87  A    between atoms: _210  and  _212
REMARK   88  A    between atoms: _212  and  _213
REMARK   89  A    between atoms: _212  and  _215
REMARK   90  A    between atoms: _215  and  _216
REMARK   91  A    between atoms: _221  and  _222
REMARK   92  A    between atoms: _224  and  _226
REMARK   93  A    between atoms: _226  and  _227
REMARK   94  A    between atoms: _226  and  _229
REMARK   95  A    between atoms: _229  and  _230
REMARK   96  A    between atoms: _232  and  _234
REMARK   97  A    between atoms: _241  and  _242
REMARK   98  A    between atoms: _247  and  _248
REMARK   99  A    between atoms: _253  and  _255
REMARK  100  A    between atoms: _255  and  _256
REMARK  101  A    between atoms: _255  and  _258
REMARK  102  A    between atoms: _258  and  _259
REMARK  103  A    between atoms: _259  and  _260
REMARK  104  A    between atoms: _264  and  _265
REMARK  105  A    between atoms: _270  and  _272
REMARK  106  A    between atoms: _272  and  _273
REMARK  107  A    between atoms: _272  and  _275
REMARK  108  A    between atoms: _275  and  _276
REMARK  109  A    between atoms: _281  and  _282
REMARK  110  A    between atoms: _284  and  _286
REMARK  111  A    between atoms: _286  and  _287
REMARK  112  A    between atoms: _286  and  _289
REMARK  113  A    between atoms: _289  and  _290
REMARK  114  A    between atoms: _293  and  _295
REMARK  115  A    between atoms: _295  and  _296
REMARK  116  A    between atoms: _295  and  _298
REMARK  117  A    between atoms: _298  and  _299
REMARK  118  A    between atoms: _302  and  _304
REMARK  119  A    between atoms: _304  and  _305
REMARK  120  A    between atoms: _304  and  _307
REMARK  121  A    between atoms: _310  and  _312
REMARK  122  A    between atoms: _312  and  _313
REMARK  123  A    between atoms: _312  and  _315
REMARK  124  A    between atoms: _315  and  _316
REMARK  125  A    between atoms: _321  and  _323
REMARK  126  A    between atoms: _323  and  _324
REMARK  127  A    between atoms: _323  and  _326
REMARK  128  A    between atoms: _326  and  _327
REMARK  129  A    between atoms: _330  and  _332
REMARK  130  A    between atoms: _332  and  _333
REMARK  131  A    between atoms: _332  and  _335
REMARK  132  A    between atoms: _335  and  _336
REMARK  133  A    between atoms: _336  and  _337
REMARK  134  A    between atoms: _342  and  _344
REMARK  135  A    between atoms: _344  and  _345
REMARK  136  A    between atoms: _344  and  _347
REMARK  137  A    between atoms: _347  and  _348
REMARK  138  A    between atoms: _353  and  _354
REMARK  139  A    between atoms: _356  and  _358
REMARK  140  A    between atoms: _358  and  _359
REMARK  141  A    between atoms: _358  and  _361
REMARK  142  A    between atoms: _361  and  _362
REMARK  143  A    between atoms: _362  and  _363
REMARK  144  A    between atoms: _366  and  _368
REMARK  145  A    between atoms: _368  and  _369
REMARK  146  A    between atoms: _368  and  _371
REMARK  147  A    between atoms: _371  and  _372
REMARK  148  A    between atoms: _372  and  _373
REMARK  149  A    between atoms: _378  and  _380
REMARK  150  A    between atoms: _380  and  _381
REMARK  151  A    between atoms: _380  and  _383
REMARK  152  A    between atoms: _383  and  _384
REMARK  153  A    between atoms: _384  and  _385
REMARK  154  A    between atoms: _390  and  _392
REMARK  155  A    between atoms: _392  and  _393
REMARK  156  A    between atoms: _392  and  _395
REMARK  157  A    between atoms: _395  and  _396
REMARK  158  A    between atoms: _396  and  _397
REMARK  159  A    between atoms: _397  and  _398
REMARK  160  A    between atoms: _407  and  _409
REMARK  161  A    between atoms: _409  and  _410
REMARK  162  A    between atoms: _409  and  _412
REMARK  163  A    between atoms: _412  and  _413
REMARK  164  A    between atoms: _416  and  _418
REMARK  165  A    between atoms: _418  and  _419
REMARK  166  A    between atoms: _418  and  _421
REMARK  167  A    between atoms: _421  and  _422
REMARK  168  A    between atoms: _428  and  _430
REMARK  169  A    between atoms: _430  and  _431
REMARK  170  A    between atoms: _430  and  _433
REMARK  171  A    between atoms: _433  and  _434
REMARK  172  A    between atoms: _434  and  _435
REMARK  173  A    between atoms: _435  and  _436
REMARK  174  A    between atoms: _445  and  _447
REMARK  175  A    between atoms: _447  and  _448
REMARK  176  A    between atoms: _447  and  _450
REMARK  177  A    between atoms: _450  and  _451
REMARK  178  A    between atoms: _454  and  _456
REMARK  179  A    between atoms: _456  and  _457
REMARK  180  A    between atoms: _456  and  _459
REMARK  181  A    between atoms: _459  and  _460
REMARK  182  A    between atoms: _463  and  _464
REMARK  183  A    between atoms: _469  and  _471
REMARK  184  A    between atoms: _471  and  _472
REMARK  185  A    between atoms: _471  and  _474
REMARK  186  A    between atoms: _474  and  _475
REMARK  187  A    between atoms: _478  and  _480
REMARK  188  A    between atoms: _480  and  _481
REMARK  189  A    between atoms: _484  and  _486
REMARK  190  A    between atoms: _486  and  _487
REMARK  191  A    between atoms: _486  and  _489
REMARK  192  A    between atoms: _492  and  _494
REMARK  193  A    between atoms: _494  and  _495
REMARK  194  A    between atoms: _494  and  _497
REMARK  195  A    between atoms: _500  and  _502
REMARK  196  A    between atoms: _502  and  _503
REMARK  197  A    between atoms: _502  and  _505
REMARK  198  A    between atoms: _505  and  _506
REMARK  199  A    between atoms: _509  and  _511
REMARK  200  A    between atoms: _511  and  _512
REMARK  201  A    between atoms: _511  and  _514
REMARK  202  A    between atoms: _517  and  _519
REMARK  203  A    between atoms: _519  and  _520
REMARK  204  A    between atoms: _519  and  _522
REMARK  205  A    between atoms: _522  and  _523
REMARK  206  A    between atoms: _523  and  _524
REMARK  207  A    between atoms: _526  and  _528
REMARK  208  A    between atoms: _528  and  _529
REMARK  209  A    between atoms: _528  and  _531
REMARK  210  A    between atoms: _531  and  _532
REMARK  211  A    between atoms: _538  and  _540
REMARK  212  A    between atoms: _540  and  _541
REMARK  213  A    between atoms: _540  and  _543
REMARK  214  A    between atoms: _543  and  _544
REMARK  215  A    between atoms: _548  and  _549
REMARK  216  A    between atoms: _554  and  _556
REMARK  217  A    between atoms: _556  and  _557
REMARK  218  A    between atoms: _560  and  _562
REMARK  219  A    between atoms: _562  and  _563
REMARK  220  A    between atoms: _562  and  _565
REMARK  221  A    between atoms: _565  and  _566
REMARK                            x       y       z     vdW  Elec       q    Type
REMARK                         _______ _______ _______ _____ _____    ______ ____
ROOT
ATOM      1  O   HOH     1     -10.200  30.942   4.026  0.00  0.00    +0.000 OA
ENDROOT
TORSDOF 0
REMARK  Name = ../refined-set-2016/2bys/2bys_pocket.pdb
REMARK  221 active torsions:
REMARK  status: ('A' for Active; 'I' for Inactive)
REMARK    1  A    between atoms: _1  and  _3
REMARK    2  A    between atoms: _3  and  _4
REMARK    3  A    between atoms: _3  and  _6
REMARK    4  A    between atoms: _6  and  _7
REMARK    5  A    between atoms: _10  and  _12
REMARK    6  A    between atoms: _12  and  _13
REMARK    7  A    between atoms: _12  and  _15
REMARK    8  A    between atoms: _15  and  _16
REMARK    9  A    between atoms: _19  and  _21
REMARK   10  A    between atoms: _21  and  _22
REMARK   11  A    between atoms: _21  and  _24
REMARK   12  A    between atoms: _24  and  _25
REMARK   13  A    between atoms: _28  and  _30
REMARK   14  A    between atoms: _30  and  _31
REMARK   15  A    between atoms: _34  and  _36
REMARK   16  A    between atoms: _36  and  _37
REMARK   17  A    between atoms: _36  and  _39
REMARK   18  A    between atoms: _39  and  _40
REMARK   19  A    between atoms: _45  and  _46
REMARK   20  A    between atoms: _48  and  _50
REMARK   21  A    between atoms: _50  and  _51
REMARK   22  A    between atoms: _50  and  _53
REMARK   23  A    between atoms: _53  and  _54
REMARK   24  A    between atoms: _56  and  _58
REMARK   25  A    between atoms: _58  and  _59
REMARK   26  A    between atoms: _58  and  _61
REMARK   27  A    between atoms: _61  and  _62
REMARK   28  A    between atoms: _64  and  _66
REMARK   29  A    between atoms: _66  and  _67
REMARK   30  A    between atoms: _66  and  _69
REMARK   31  A    between atoms: _72  and  _74
REMARK   32  A    between atoms: _74  and  _75
REMARK   33  A    between atoms: _74  and  _77
REMARK   34  A    between atoms: _77  and  _78
REMARK   35  A    between atoms: _78  and  _79
REMARK   36  A    between atoms: _79  and  _80
REMARK   37  A    between atoms: _80  and  _81
REMARK   38  A    between atoms: _85  and  _87
REMARK   39  A    between atoms: _87  and  _88
REMARK   40  A    between atoms: _87  and  _90
REMARK   41  A    between atoms: _90  and  _91
REMARK   42  A    between atoms: _97  and  _99
REMARK   43  A    between atoms: _99  and  _100
REMARK   44  A    between atoms: _102  and  _104
REMARK   45  A    between atoms: _104  and  _105
REMARK   46  A    between atoms: _104  and  _107
REMARK   47  A    between atoms: _107  and  _108
REMARK   48  A    between atoms: _110  and  _112
REMARK   49  A    between atoms: _112  and  _113
REMARK   50  A    between atoms: _112  and  _115
REMARK   51  A    between atoms: _115  and  _116
REMARK   52  A    between atoms: _126  and  _128
REMARK   53  A    between atoms: _128  and  _129
REMARK   54  A    between atoms: _128  and  _131
REMARK   55  A    between atoms: _134  and  _136
REMARK   56  A    between atoms: _136  and  _137
REMARK   57  A    between atoms: _136  and  _139
REMARK   58  A    between atoms: _139  and  _140
REMARK   59  A    between atoms: _145  and  _146
REMARK   60  A    between atoms: _148  and  _150
REMARK   61  A    between atoms: _150  and  _151
REMARK   62  A    between atoms: _150  and  _153
REMARK   63  A    between atoms: _153  and  _154
REMARK   64  A    between atoms: _156  and  _158
REMARK   65  A    between atoms: _158  and  _159
REMARK   66  A    between atoms: _158  and  _161
REMARK   67  A    between atoms: _161  and  _162
REMARK   68  A    between atoms: _162  and  _163
REMARK   69  A    between atoms: _166  and  _168
REMARK   70  A    between atoms: _168  and  _169
REMARK   71  A    between atoms: _168  and  _171
REMARK   72  A    between atoms: _171  and  _172
REMARK   73  A    between atoms: _175  and  _177
REMARK   74  A    between atoms: _177  and  _178
REMARK   75  A    between atoms: _177  and  _180
REMARK   76  A    between atoms: _180  and  _181
REMARK   77  A    between atoms: _181  and  _182
REMARK   78  A    between atoms: _187  and  _189
REMARK   79  A    between atoms: _189  and  _190
REMARK   80  A    between atoms: _189  and  _192
REMARK   81  A    between atoms: _192  and  _193
REMARK   82  A    between atoms: _193  and  _194
REMARK   83  A    between atoms: _199  and  _201
REMARK   84  A    between atoms: _201  and  _202
REMARK   85  A    between atoms: _201  and  _204
REMARK   86  A    between atoms: _204  and  _205
REMARK   87  A    between atoms: _210  and  _212
REMARK   88  A    between atoms: _212  and  _213
REMARK   89  A    between atoms: _212  and  _215
REMARK   90  A    between atoms: _215  and  _216
REMARK   91  A    between atoms: _221  and  _222
REMARK   92  A    between atoms: _224  and  _226
REMARK   93  A    between atoms: _226  and  _227
REMARK   94  A    between atoms: _226  and  _229
REMARK   95  A    between atoms: _229  and  _230
REMARK   96  A    between atoms: _232  and  _234
REMARK   97  A    between atoms: _241  and  _242
REMARK   98  A    between atoms: _247  and  _248
REMARK   99  A    between atoms: _253  and  _255
REMARK  100  A    between atoms: _255  and  _256
REMARK  101  A    between atoms: _255  and  _258
REMARK  102  A    between atoms: _258  and  _259
REMARK  103  A    between atoms: _259  and  _260
REMARK  104  A    between atoms: _264  and  _265
REMARK  105  A    between atoms: _270  and  _272
REMARK  106  A    between atoms: _272  and  _273
REMARK  107  A    between atoms: _272  and  _275
REMARK  108  A    between atoms: _275  and  _276
REMARK  109  A    between atoms: _281  and  _282
REMARK  110  A    between atoms: _284  and  _286
REMARK  111  A    between atoms: _286  and  _287
REMARK  112  A    between atoms: _286  and  _289
REMARK  113  A    between atoms: _289  and  _290
REMARK  114  A    between atoms: _293  and  _295
REMARK  115  A    between atoms: _295  and  _296
REMARK  116  A    between atoms: _295  and  _298
REMARK  117  A    between atoms: _298  and  _299
REMARK  118  A    between atoms: _302  and  _304
REMARK  119  A    between atoms: _304  and  _305
REMARK  120  A    between atoms: _304  and  _307
REMARK  121  A    between atoms: _310  and  _312
REMARK  122  A    between atoms: _312  and  _313
REMARK  123  A    between atoms: _312  and  _315
REMARK  124  A    between atoms: _315  and  _316
REMARK  125  A    between atoms: _321  and  _323
REMARK  126  A    between atoms: _323  and  _324
REMARK  127  A    between atoms: _323  and  _326
REMARK  128  A    between atoms: _326  and  _327
REMARK  129  A    between atoms: _330  and  _332
REMARK  130  A    between atoms: _332  and  _333
REMARK  131  A    between atoms: _332  and  _335
REMARK  132  A    between atoms: _335  and  _336
REMARK  133  A    between atoms: _336  and  _337
REMARK  134  A    between atoms: _342  and  _344
REMARK  135  A    between atoms: _344  and  _345
REMARK  136  A    between atoms: _344  and  _347
REMARK  137  A    between atoms: _347  and  _348
REMARK  138  A    between atoms: _353  and  _354
REMARK  139  A    between atoms: _356  and  _358
REMARK  140  A    between atoms: _358  and  _359
REMARK  141  A    between atoms: _358  and  _361
REMARK  142  A    between atoms: _361  and  _362
REMARK  143  A    between atoms: _362  and  _363
REMARK  144  A    between atoms: _366  and  _368
REMARK  145  A    between atoms: _368  and  _369
REMARK  146  A    between atoms: _368  and  _371
REMARK  147  A    between atoms: _371  and  _372
REMARK  148  A    between atoms: _372  and  _373
REMARK  149  A    between atoms: _378  and  _380
REMARK  150  A    between atoms: _380  and  _381
REMARK  151  A    between atoms: _380  and  _383
REMARK  152  A    between atoms: _383  and  _384
REMARK  153  A    between atoms: _384  and  _385
REMARK  154  A    between atoms: _390  and  _392
REMARK  155  A    between atoms: _392  and  _393
REMARK  156  A    between atoms: _392  and  _395
REMARK  157  A    between atoms: _395  and  _396
REMARK  158  A    between atoms: _396  and  _397
REMARK  159  A    between atoms: _397  and  _398
REMARK  160  A    between atoms: _407  and  _409
REMARK  161  A    between atoms: _409  and  _410
REMARK  162  A    between atoms: _409  and  _412
REMARK  163  A    between atoms: _412  and  _413
REMARK  164  A    between atoms: _416  and  _418
REMARK  165  A    between atoms: _418  and  _419
REMARK  166  A    between atoms: _418  and  _421
REMARK  167  A    between atoms: _421  and  _422
REMARK  168  A    between atoms: _428  and  _430
REMARK  169  A    between atoms: _430  and  _431
REMARK  170  A    between atoms: _430  and  _433
REMARK  171  A    between atoms: _433  and  _434
REMARK  172  A    between atoms: _434  and  _435
REMARK  173  A    between atoms: _435  and  _436
REMARK  174  A    between atoms: _445  and  _447
REMARK  175  A    between atoms: _447  and  _448
REMARK  176  A    between atoms: _447  and  _450
REMARK  177  A    between atoms: _450  and  _451
REMARK  178  A    between atoms: _454  and  _456
REMARK  179  A    between atoms: _456  and  _457
REMARK  180  A    between atoms: _456  and  _459
REMARK  181  A    between atoms: _459  and  _460
REMARK  182  A    between atoms: _463  and  _464
REMARK  183  A    between atoms: _469  and  _471
REMARK  184  A    between atoms: _471  and  _472
REMARK  185  A    between atoms: _471  and  _474
REMARK  186  A    between atoms: _474  and  _475
REMARK  187  A    between atoms: _478  and  _480
REMARK  188  A    between atoms: _480  and  _481
REMARK  189  A    between atoms: _484  and  _486
REMARK  190  A    between atoms: _486  and  _487
REMARK  191  A    between atoms: _486  and  _489
REMARK  192  A    between atoms: _492  and  _494
REMARK  193  A    between atoms: _494  and  _495
REMARK  194  A    between atoms: _494  and  _497
REMARK  195  A    between atoms: _500  and  _502
REMARK  196  A    between atoms: _502  and  _503
REMARK  197  A    between atoms: _502  and  _505
REMARK  198  A    between atoms: _505  and  _506
REMARK  199  A    between atoms: _509  and  _511
REMARK  200  A    between atoms: _511  and  _512
REMARK  201  A    between atoms: _511  and  _514
REMARK  202  A    between atoms: _517  and  _519
REMARK  203  A    between atoms: _519  and  _520
REMARK  204  A    between atoms: _519  and  _522
REMARK  205  A    between atoms: _522  and  _523
REMARK  206  A    between atoms: _523  and  _524
REMARK  207  A    between atoms: _526  and  _528
REMARK  208  A    between atoms: _528  and  _529
REMARK  209  A    between atoms: _528  and  _531
REMARK  210  A    between atoms: _531  and  _532
REMARK  211  A    between atoms: _538  and  _540
REMARK  212  A    between atoms: _540  and  _541
REMARK  213  A    between atoms: _540  and  _543
REMARK  214  A    between atoms: _543  and  _544
REMARK  215  A    between atoms: _548  and  _549
REMARK  216  A    between atoms: _554  and  _556
REMARK  217  A    between atoms: _556  and  _557
REMARK  218  A    between atoms: _560  and  _562
REMARK  219  A    between atoms: _562  and  _563
REMARK  220  A    between atoms: _562  and  _565
REMARK  221  A    between atoms: _565  and  _566
REMARK                            x       y       z     vdW  Elec       q    Type
REMARK                         _______ _______ _______ _____ _____    ______ ____
ROOT
ATOM      1  O   HOH     1      -3.302  27.436  -3.965  0.00  0.00    +0.000 OA
ENDROOT
TORSDOF 0
REMARK  Name = ../refined-set-2016/2bys/2bys_pocket.pdb
REMARK  221 active torsions:
REMARK  status: ('A' for Active; 'I' for Inactive)
REMARK    1  A    between atoms: _1  and  _3
REMARK    2  A    between atoms: _3  and  _4
REMARK    3  A    between atoms: _3  and  _6
REMARK    4  A    between atoms: _6  and  _7
REMARK    5  A    between atoms: _10  and  _12
REMARK    6  A    between atoms: _12  and  _13
REMARK    7  A    between atoms: _12  and  _15
REMARK    8  A    between atoms: _15  and  _16
REMARK    9  A    between atoms: _19  and  _21
REMARK   10  A    between atoms: _21  and  _22
REMARK   11  A    between atoms: _21  and  _24
REMARK   12  A    between atoms: _24  and  _25
REMARK   13  A    between atoms: _28  and  _30
REMARK   14  A    between atoms: _30  and  _31
REMARK   15  A    between atoms: _34  and  _36
REMARK   16  A    between atoms: _36  and  _37
REMARK   17  A    between atoms: _36  and  _39
REMARK   18  A    between atoms: _39  and  _40
REMARK   19  A    between atoms: _45  and  _46
REMARK   20  A    between atoms: _48  and  _50
REMARK   21  A    between atoms: _50  and  _51
REMARK   22  A    between atoms: _50  and  _53
REMARK   23  A    between atoms: _53  and  _54
REMARK   24  A    between atoms: _56  and  _58
REMARK   25  A    between atoms: _58  and  _59
REMARK   26  A    between atoms: _58  and  _61
REMARK   27  A    between atoms: _61  and  _62
REMARK   28  A    between atoms: _64  and  _66
REMARK   29  A    between atoms: _66  and  _67
REMARK   30  A    between atoms: _66  and  _69
REMARK   31  A    between atoms: _72  and  _74
REMARK   32  A    between atoms: _74  and  _75
REMARK   33  A    between atoms: _74  and  _77
REMARK   34  A    between atoms: _77  and  _78
REMARK   35  A    between atoms: _78  and  _79
REMARK   36  A    between atoms: _79  and  _80
REMARK   37  A    between atoms: _80  and  _81
REMARK   38  A    between atoms: _85  and  _87
REMARK   39  A    between atoms: _87  and  _88
REMARK   40  A    between atoms: _87  and  _90
REMARK   41  A    between atoms: _90  and  _91
REMARK   42  A    between atoms: _97  and  _99
REMARK   43  A    between atoms: _99  and  _100
REMARK   44  A    between atoms: _102  and  _104
REMARK   45  A    between atoms: _104  and  _105
REMARK   46  A    between atoms: _104  and  _107
REMARK   47  A    between atoms: _107  and  _108
REMARK   48  A    between atoms: _110  and  _112
REMARK   49  A    between atoms: _112  and  _113
REMARK   50  A    between atoms: _112  and  _115
REMARK   51  A    between atoms: _115  and  _116
REMARK   52  A    between atoms: _126  and  _128
REMARK   53  A    between atoms: _128  and  _129
REMARK   54  A    between atoms: _128  and  _131
REMARK   55  A    between atoms: _134  and  _136
REMARK   56  A    between atoms: _136  and  _137
REMARK   57  A    between atoms: _136  and  _139
REMARK   58  A    between atoms: _139  and  _140
REMARK   59  A    between atoms: _145  and  _146
REMARK   60  A    between atoms: _148  and  _150
REMARK   61  A    between atoms: _150  and  _151
REMARK   62  A    between atoms: _150  and  _153
REMARK   63  A    between atoms: _153  and  _154
REMARK   64  A    between atoms: _156  and  _158
REMARK   65  A    between atoms: _158  and  _159
REMARK   66  A    between atoms: _158  and  _161
REMARK   67  A    between atoms: _161  and  _162
REMARK   68  A    between atoms: _162  and  _163
REMARK   69  A    between atoms: _166  and  _168
REMARK   70  A    between atoms: _168  and  _169
REMARK   71  A    between atoms: _168  and  _171
REMARK   72  A    between atoms: _171  and  _172
REMARK   73  A    between atoms: _175  and  _177
REMARK   74  A    between atoms: _177  and  _178
REMARK   75  A    between atoms: _177  and  _180
REMARK   76  A    between atoms: _180  and  _181
REMARK   77  A    between atoms: _181  and  _182
REMARK   78  A    between atoms: _187  and  _189
REMARK   79  A    between atoms: _189  and  _190
REMARK   80  A    between atoms: _189  and  _192
REMARK   81  A    between atoms: _192  and  _193
REMARK   82  A    between atoms: _193  and  _194
REMARK   83  A    between atoms: _199  and  _201
REMARK   84  A    between atoms: _201  and  _202
REMARK   85  A    between atoms: _201  and  _204
REMARK   86  A    between atoms: _204  and  _205
REMARK   87  A    between atoms: _210  and  _212
REMARK   88  A    between atoms: _212  and  _213
REMARK   89  A    between atoms: _212  and  _215
REMARK   90  A    between atoms: _215  and  _216
REMARK   91  A    between atoms: _221  and  _222
REMARK   92  A    between atoms: _224  and  _226
REMARK   93  A    between atoms: _226  and  _227
REMARK   94  A    between atoms: _226  and  _229
REMARK   95  A    between atoms: _229  and  _230
REMARK   96  A    between atoms: _232  and  _234
REMARK   97  A    between atoms: _241  and  _242
REMARK   98  A    between atoms: _247  and  _248
REMARK   99  A    between atoms: _253  and  _255
REMARK  100  A    between atoms: _255  and  _256
REMARK  101  A    between atoms: _255  and  _258
REMARK  102  A    between atoms: _258  and  _259
REMARK  103  A    between atoms: _259  and  _260
REMARK  104  A    between atoms: _264  and  _265
REMARK  105  A    between atoms: _270  and  _272
REMARK  106  A    between atoms: _272  and  _273
REMARK  107  A    between atoms: _272  and  _275
REMARK  108  A    between atoms: _275  and  _276
REMARK  109  A    between atoms: _281  and  _282
REMARK  110  A    between atoms: _284  and  _286
REMARK  111  A    between atoms: _286  and  _287
REMARK  112  A    between atoms: _286  and  _289
REMARK  113  A    between atoms: _289  and  _290
REMARK  114  A    between atoms: _293  and  _295
REMARK  115  A    between atoms: _295  and  _296
REMARK  116  A    between atoms: _295  and  _298
REMARK  117  A    between atoms: _298  and  _299
REMARK  118  A    between atoms: _302  and  _304
REMARK  119  A    between atoms: _304  and  _305
REMARK  120  A    between atoms: _304  and  _307
REMARK  121  A    between atoms: _310  and  _312
REMARK  122  A    between atoms: _312  and  _313
REMARK  123  A    between atoms: _312  and  _315
REMARK  124  A    between atoms: _315  and  _316
REMARK  125  A    between atoms: _321  and  _323
REMARK  126  A    between atoms: _323  and  _324
REMARK  127  A    between atoms: _323  and  _326
REMARK  128  A    between atoms: _326  and  _327
REMARK  129  A    between atoms: _330  and  _332
REMARK  130  A    between atoms: _332  and  _333
REMARK  131  A    between atoms: _332  and  _335
REMARK  132  A    between atoms: _335  and  _336
REMARK  133  A    between atoms: _336  and  _337
REMARK  134  A    between atoms: _342  and  _344
REMARK  135  A    between atoms: _344  and  _345
REMARK  136  A    between atoms: _344  and  _347
REMARK  137  A    between atoms: _347  and  _348
REMARK  138  A    between atoms: _353  and  _354
REMARK  139  A    between atoms: _356  and  _358
REMARK  140  A    between atoms: _358  and  _359
REMARK  141  A    between atoms: _358  and  _361
REMARK  142  A    between atoms: _361  and  _362
REMARK  143  A    between atoms: _362  and  _363
REMARK  144  A    between atoms: _366  and  _368
REMARK  145  A    between atoms: _368  and  _369
REMARK  146  A    between atoms: _368  and  _371
REMARK  147  A    between atoms: _371  and  _372
REMARK  148  A    between atoms: _372  and  _373
REMARK  149  A    between atoms: _378  and  _380
REMARK  150  A    between atoms: _380  and  _381
REMARK  151  A    between atoms: _380  and  _383
REMARK  152  A    between atoms: _383  and  _384
REMARK  153  A    between atoms: _384  and  _385
REMARK  154  A    between atoms: _390  and  _392
REMARK  155  A    between atoms: _392  and  _393
REMARK  156  A    between atoms: _392  and  _395
REMARK  157  A    between atoms: _395  and  _396
REMARK  158  A    between atoms: _396  and  _397
REMARK  159  A    between atoms: _397  and  _398
REMARK  160  A    between atoms: _407  and  _409
REMARK  161  A    between atoms: _409  and  _410
REMARK  162  A    between atoms: _409  and  _412
REMARK  163  A    between atoms: _412  and  _413
REMARK  164  A    between atoms: _416  and  _418
REMARK  165  A    between atoms: _418  and  _419
REMARK  166  A    between atoms: _418  and  _421
REMARK  167  A    between atoms: _421  and  _422
REMARK  168  A    between atoms: _428  and  _430
REMARK  169  A    between atoms: _430  and  _431
REMARK  170  A    between atoms: _430  and  _433
REMARK  171  A    between atoms: _433  and  _434
REMARK  172  A    between atoms: _434  and  _435
REMARK  173  A    between atoms: _435  and  _436
REMARK  174  A    between atoms: _445  and  _447
REMARK  175  A    between atoms: _447  and  _448
REMARK  176  A    between atoms: _447  and  _450
REMARK  177  A    between atoms: _450  and  _451
REMARK  178  A    between atoms: _454  and  _456
REMARK  179  A    between atoms: _456  and  _457
REMARK  180  A    between atoms: _456  and  _459
REMARK  181  A    between atoms: _459  and  _460
REMARK  182  A    between atoms: _463  and  _464
REMARK  183  A    between atoms: _469  and  _471
REMARK  184  A    between atoms: _471  and  _472
REMARK  185  A    between atoms: _471  and  _474
REMARK  186  A    between atoms: _474  and  _475
REMARK  187  A    between atoms: _478  and  _480
REMARK  188  A    between atoms: _480  and  _481
REMARK  189  A    between atoms: _484  and  _486
REMARK  190  A    between atoms: _486  and  _487
REMARK  191  A    between atoms: _486  and  _489
REMARK  192  A    between atoms: _492  and  _494
REMARK  193  A    between atoms: _494  and  _495
REMARK  194  A    between atoms: _494  and  _497
REMARK  195  A    between atoms: _500  and  _502
REMARK  196  A    between atoms: _502  and  _503
REMARK  197  A    between atoms: _502  and  _505
REMARK  198  A    between atoms: _505  and  _506
REMARK  199  A    between atoms: _509  and  _511
REMARK  200  A    between atoms: _511  and  _512
REMARK  201  A    between atoms: _511  and  _514
REMARK  202  A    between atoms: _517  and  _519
REMARK  203  A    between atoms: _519  and  _520
REMARK  204  A    between atoms: _519  and  _522
REMARK  205  A    between atoms: _522  and  _523
REMARK  206  A    between atoms: _523  and  _524
REMARK  207  A    between atoms: _526  and  _528
REMARK  208  A    between atoms: _528  and  _529
REMARK  209  A    between atoms: _528  and  _531
REMARK  210  A    between atoms: _531  and  _532
REMARK  211  A    between atoms: _538  and  _540
REMARK  212  A    between atoms: _540  and  _541
REMARK  213  A    between atoms: _540  and  _543
REMARK  214  A    between atoms: _543  and  _544
REMARK  215  A    between atoms: _548  and  _549
REMARK  216  A    between atoms: _554  and  _556
REMARK  217  A    between atoms: _556  and  _557
REMARK  218  A    between atoms: _560  and  _562
REMARK  219  A    between atoms: _562  and  _563
REMARK  220  A    between atoms: _562  and  _565
REMARK  221  A    between atoms: _565  and  _566
REMARK                            x       y       z     vdW  Elec       q    Type
REMARK                         _______ _______ _______ _____ _____    ______ ____
ROOT
ATOM      1  O   HOH     1      -9.932  28.373  -3.688  0.00  0.00    +0.000 OA
ENDROOT
TORSDOF 0
REMARK  Name = ../refined-set-2016/2bys/2bys_pocket.pdb
REMARK  221 active torsions:
REMARK  status: ('A' for Active; 'I' for Inactive)
REMARK    1  A    between atoms: _1  and  _3
REMARK    2  A    between atoms: _3  and  _4
REMARK    3  A    between atoms: _3  and  _6
REMARK    4  A    between atoms: _6  and  _7
REMARK    5  A    between atoms: _10  and  _12
REMARK    6  A    between atoms: _12  and  _13
REMARK    7  A    between atoms: _12  and  _15
REMARK    8  A    between atoms: _15  and  _16
REMARK    9  A    between atoms: _19  and  _21
REMARK   10  A    between atoms: _21  and  _22
REMARK   11  A    between atoms: _21  and  _24
REMARK   12  A    between atoms: _24  and  _25
REMARK   13  A    between atoms: _28  and  _30
REMARK   14  A    between atoms: _30  and  _31
REMARK   15  A    between atoms: _34  and  _36
REMARK   16  A    between atoms: _36  and  _37
REMARK   17  A    between atoms: _36  and  _39
REMARK   18  A    between atoms: _39  and  _40
REMARK   19  A    between atoms: _45  and  _46
REMARK   20  A    between atoms: _48  and  _50
REMARK   21  A    between atoms: _50  and  _51
REMARK   22  A    between atoms: _50  and  _53
REMARK   23  A    between atoms: _53  and  _54
REMARK   24  A    between atoms: _56  and  _58
REMARK   25  A    between atoms: _58  and  _59
REMARK   26  A    between atoms: _58  and  _61
REMARK   27  A    between atoms: _61  and  _62
REMARK   28  A    between atoms: _64  and  _66
REMARK   29  A    between atoms: _66  and  _67
REMARK   30  A    between atoms: _66  and  _69
REMARK   31  A    between atoms: _72  and  _74
REMARK   32  A    between atoms: _74  and  _75
REMARK   33  A    between atoms: _74  and  _77
REMARK   34  A    between atoms: _77  and  _78
REMARK   35  A    between atoms: _78  and  _79
REMARK   36  A    between atoms: _79  and  _80
REMARK   37  A    between atoms: _80  and  _81
REMARK   38  A    between atoms: _85  and  _87
REMARK   39  A    between atoms: _87  and  _88
REMARK   40  A    between atoms: _87  and  _90
REMARK   41  A    between atoms: _90  and  _91
REMARK   42  A    between atoms: _97  and  _99
REMARK   43  A    between atoms: _99  and  _100
REMARK   44  A    between atoms: _102  and  _104
REMARK   45  A    between atoms: _104  and  _105
REMARK   46  A    between atoms: _104  and  _107
REMARK   47  A    between atoms: _107  and  _108
REMARK   48  A    between atoms: _110  and  _112
REMARK   49  A    between atoms: _112  and  _113
REMARK   50  A    between atoms: _112  and  _115
REMARK   51  A    between atoms: _115  and  _116
REMARK   52  A    between atoms: _126  and  _128
REMARK   53  A    between atoms: _128  and  _129
REMARK   54  A    between atoms: _128  and  _131
REMARK   55  A    between atoms: _134  and  _136
REMARK   56  A    between atoms: _136  and  _137
REMARK   57  A    between atoms: _136  and  _139
REMARK   58  A    between atoms: _139  and  _140
REMARK   59  A    between atoms: _145  and  _146
REMARK   60  A    between atoms: _148  and  _150
REMARK   61  A    between atoms: _150  and  _151
REMARK   62  A    between atoms: _150  and  _153
REMARK   63  A    between atoms: _153  and  _154
REMARK   64  A    between atoms: _156  and  _158
REMARK   65  A    between atoms: _158  and  _159
REMARK   66  A    between atoms: _158  and  _161
REMARK   67  A    between atoms: _161  and  _162
REMARK   68  A    between atoms: _162  and  _163
REMARK   69  A    between atoms: _166  and  _168
REMARK   70  A    between atoms: _168  and  _169
REMARK   71  A    between atoms: _168  and  _171
REMARK   72  A    between atoms: _171  and  _172
REMARK   73  A    between atoms: _175  and  _177
REMARK   74  A    between atoms: _177  and  _178
REMARK   75  A    between atoms: _177  and  _180
REMARK   76  A    between atoms: _180  and  _181
REMARK   77  A    between atoms: _181  and  _182
REMARK   78  A    between atoms: _187  and  _189
REMARK   79  A    between atoms: _189  and  _190
REMARK   80  A    between atoms: _189  and  _192
REMARK   81  A    between atoms: _192  and  _193
REMARK   82  A    between atoms: _193  and  _194
REMARK   83  A    between atoms: _199  and  _201
REMARK   84  A    between atoms: _201  and  _202
REMARK   85  A    between atoms: _201  and  _204
REMARK   86  A    between atoms: _204  and  _205
REMARK   87  A    between atoms: _210  and  _212
REMARK   88  A    between atoms: _212  and  _213
REMARK   89  A    between atoms: _212  and  _215
REMARK   90  A    between atoms: _215  and  _216
REMARK   91  A    between atoms: _221  and  _222
REMARK   92  A    between atoms: _224  and  _226
REMARK   93  A    between atoms: _226  and  _227
REMARK   94  A    between atoms: _226  and  _229
REMARK   95  A    between atoms: _229  and  _230
REMARK   96  A    between atoms: _232  and  _234
REMARK   97  A    between atoms: _241  and  _242
REMARK   98  A    between atoms: _247  and  _248
REMARK   99  A    between atoms: _253  and  _255
REMARK  100  A    between atoms: _255  and  _256
REMARK  101  A    between atoms: _255  and  _258
REMARK  102  A    between atoms: _258  and  _259
REMARK  103  A    between atoms: _259  and  _260
REMARK  104  A    between atoms: _264  and  _265
REMARK  105  A    between atoms: _270  and  _272
REMARK  106  A    between atoms: _272  and  _273
REMARK  107  A    between atoms: _272  and  _275
REMARK  108  A    between atoms: _275  and  _276
REMARK  109  A    between atoms: _281  and  _282
REMARK  110  A    between atoms: _284  and  _286
REMARK  111  A    between atoms: _286  and  _287
REMARK  112  A    between atoms: _286  and  _289
REMARK  113  A    between atoms: _289  and  _290
REMARK  114  A    between atoms: _293  and  _295
REMARK  115  A    between atoms: _295  and  _296
REMARK  116  A    between atoms: _295  and  _298
REMARK  117  A    between atoms: _298  and  _299
REMARK  118  A    between atoms: _302  and  _304
REMARK  119  A    between atoms: _304  and  _305
REMARK  120  A    between atoms: _304  and  _307
REMARK  121  A    between atoms: _310  and  _312
REMARK  122  A    between atoms: _312  and  _313
REMARK  123  A    between atoms: _312  and  _315
REMARK  124  A    between atoms: _315  and  _316
REMARK  125  A    between atoms: _321  and  _323
REMARK  126  A    between atoms: _323  and  _324
REMARK  127  A    between atoms: _323  and  _326
REMARK  128  A    between atoms: _326  and  _327
REMARK  129  A    between atoms: _330  and  _332
REMARK  130  A    between atoms: _332  and  _333
REMARK  131  A    between atoms: _332  and  _335
REMARK  132  A    between atoms: _335  and  _336
REMARK  133  A    between atoms: _336  and  _337
REMARK  134  A    between atoms: _342  and  _344
REMARK  135  A    between atoms: _344  and  _345
REMARK  136  A    between atoms: _344  and  _347
REMARK  137  A    between atoms: _347  and  _348
REMARK  138  A    between atoms: _353  and  _354
REMARK  139  A    between atoms: _356  and  _358
REMARK  140  A    between atoms: _358  and  _359
REMARK  141  A    between atoms: _358  and  _361
REMARK  142  A    between atoms: _361  and  _362
REMARK  143  A    between atoms: _362  and  _363
REMARK  144  A    between atoms: _366  and  _368
REMARK  145  A    between atoms: _368  and  _369
REMARK  146  A    between atoms: _368  and  _371
REMARK  147  A    between atoms: _371  and  _372
REMARK  148  A    between atoms: _372  and  _373
REMARK  149  A    between atoms: _378  and  _380
REMARK  150  A    between atoms: _380  and  _381
REMARK  151  A    between atoms: _380  and  _383
REMARK  152  A    between atoms: _383  and  _384
REMARK  153  A    between atoms: _384  and  _385
REMARK  154  A    between atoms: _390  and  _392
REMARK  155  A    between atoms: _392  and  _393
REMARK  156  A    between atoms: _392  and  _395
REMARK  157  A    between atoms: _395  and  _396
REMARK  158  A    between atoms: _396  and  _397
REMARK  159  A    between atoms: _397  and  _398
REMARK  160  A    between atoms: _407  and  _409
REMARK  161  A    between atoms: _409  and  _410
REMARK  162  A    between atoms: _409  and  _412
REMARK  163  A    between atoms: _412  and  _413
REMARK  164  A    between atoms: _416  and  _418
REMARK  165  A    between atoms: _418  and  _419
REMARK  166  A    between atoms: _418  and  _421
REMARK  167  A    between atoms: _421  and  _422
REMARK  168  A    between atoms: _428  and  _430
REMARK  169  A    between atoms: _430  and  _431
REMARK  170  A    between atoms: _430  and  _433
REMARK  171  A    between atoms: _433  and  _434
REMARK  172  A    between atoms: _434  and  _435
REMARK  173  A    between atoms: _435  and  _436
REMARK  174  A    between atoms: _445  and  _447
REMARK  175  A    between atoms: _447  and  _448
REMARK  176  A    between atoms: _447  and  _450
REMARK  177  A    between atoms: _450  and  _451
REMARK  178  A    between atoms: _454  and  _456
REMARK  179  A    between atoms: _456  and  _457
REMARK  180  A    between atoms: _456  and  _459
REMARK  181  A    between atoms: _459  and  _460
REMARK  182  A    between atoms: _463  and  _464
REMARK  183  A    between atoms: _469  and  _471
REMARK  184  A    between atoms: _471  and  _472
REMARK  185  A    between atoms: _471  and  _474
REMARK  186  A    between atoms: _474  and  _475
REMARK  187  A    between atoms: _478  and  _480
REMARK  188  A    between atoms: _480  and  _481
REMARK  189  A    between atoms: _484  and  _486
REMARK  190  A    between atoms: _486  and  _487
REMARK  191  A    between atoms: _486  and  _489
REMARK  192  A    between atoms: _492  and  _494
REMARK  193  A    between atoms: _494  and  _495
REMARK  194  A    between atoms: _494  and  _497
REMARK  195  A    between atoms: _500  and  _502
REMARK  196  A    between atoms: _502  and  _503
REMARK  197  A    between atoms: _502  and  _505
REMARK  198  A    between atoms: _505  and  _506
REMARK  199  A    between atoms: _509  and  _511
REMARK  200  A    between atoms: _511  and  _512
REMARK  201  A    between atoms: _511  and  _514
REMARK  202  A    between atoms: _517  and  _519
REMARK  203  A    between atoms: _519  and  _520
REMARK  204  A    between atoms: _519  and  _522
REMARK  205  A    between atoms: _522  and  _523
REMARK  206  A    between atoms: _523  and  _524
REMARK  207  A    between atoms: _526  and  _528
REMARK  208  A    between atoms: _528  and  _529
REMARK  209  A    between atoms: _528  and  _531
REMARK  210  A    between atoms: _531  and  _532
REMARK  211  A    between atoms: _538  and  _540
REMARK  212  A    between atoms: _540  and  _541
REMARK  213  A    between atoms: _540  and  _543
REMARK  214  A    between atoms: _543  and  _544
REMARK  215  A    between atoms: _548  and  _549
REMARK  216  A    between atoms: _554  and  _556
REMARK  217  A    between atoms: _556  and  _557
REMARK  218  A    between atoms: _560  and  _562
REMARK  219  A    between atoms: _562  and  _563
REMARK  220  A    between atoms: _562  and  _565
REMARK  221  A    between atoms: _565  and  _566
REMARK                            x       y       z     vdW  Elec       q    Type
REMARK                         _______ _______ _______ _____ _____    ______ ____
ROOT
ATOM      1  O   HOH     1     -16.011  23.646   6.513  0.00  0.00    +0.000 OA
ENDROOT
TORSDOF 0
REMARK  Name = ../refined-set-2016/2bys/2bys_pocket.pdb
REMARK  221 active torsions:
REMARK  status: ('A' for Active; 'I' for Inactive)
REMARK    1  A    between atoms: _1  and  _3
REMARK    2  A    between atoms: _3  and  _4
REMARK    3  A    between atoms: _3  and  _6
REMARK    4  A    between atoms: _6  and  _7
REMARK    5  A    between atoms: _10  and  _12
REMARK    6  A    between atoms: _12  and  _13
REMARK    7  A    between atoms: _12  and  _15
REMARK    8  A    between atoms: _15  and  _16
REMARK    9  A    between atoms: _19  and  _21
REMARK   10  A    between atoms: _21  and  _22
REMARK   11  A    between atoms: _21  and  _24
REMARK   12  A    between atoms: _24  and  _25
REMARK   13  A    between atoms: _28  and  _30
REMARK   14  A    between atoms: _30  and  _31
REMARK   15  A    between atoms: _34  and  _36
REMARK   16  A    between atoms: _36  and  _37
REMARK   17  A    between atoms: _36  and  _39
REMARK   18  A    between atoms: _39  and  _40
REMARK   19  A    between atoms: _45  and  _46
REMARK   20  A    between atoms: _48  and  _50
REMARK   21  A    between atoms: _50  and  _51
REMARK   22  A    between atoms: _50  and  _53
REMARK   23  A    between atoms: _53  and  _54
REMARK   24  A    between atoms: _56  and  _58
REMARK   25  A    between atoms: _58  and  _59
REMARK   26  A    between atoms: _58  and  _61
REMARK   27  A    between atoms: _61  and  _62
REMARK   28  A    between atoms: _64  and  _66
REMARK   29  A    between atoms: _66  and  _67
REMARK   30  A    between atoms: _66  and  _69
REMARK   31  A    between atoms: _72  and  _74
REMARK   32  A    between atoms: _74  and  _75
REMARK   33  A    between atoms: _74  and  _77
REMARK   34  A    between atoms: _77  and  _78
REMARK   35  A    between atoms: _78  and  _79
REMARK   36  A    between atoms: _79  and  _80
REMARK   37  A    between atoms: _80  and  _81
REMARK   38  A    between atoms: _85  and  _87
REMARK   39  A    between atoms: _87  and  _88
REMARK   40  A    between atoms: _87  and  _90
REMARK   41  A    between atoms: _90  and  _91
REMARK   42  A    between atoms: _97  and  _99
REMARK   43  A    between atoms: _99  and  _100
REMARK   44  A    between atoms: _102  and  _104
REMARK   45  A    between atoms: _104  and  _105
REMARK   46  A    between atoms: _104  and  _107
REMARK   47  A    between atoms: _107  and  _108
REMARK   48  A    between atoms: _110  and  _112
REMARK   49  A    between atoms: _112  and  _113
REMARK   50  A    between atoms: _112  and  _115
REMARK   51  A    between atoms: _115  and  _116
REMARK   52  A    between atoms: _126  and  _128
REMARK   53  A    between atoms: _128  and  _129
REMARK   54  A    between atoms: _128  and  _131
REMARK   55  A    between atoms: _134  and  _136
REMARK   56  A    between atoms: _136  and  _137
REMARK   57  A    between atoms: _136  and  _139
REMARK   58  A    between atoms: _139  and  _140
REMARK   59  A    between atoms: _145  and  _146
REMARK   60  A    between atoms: _148  and  _150
REMARK   61  A    between atoms: _150  and  _151
REMARK   62  A    between atoms: _150  and  _153
REMARK   63  A    between atoms: _153  and  _154
REMARK   64  A    between atoms: _156  and  _158
REMARK   65  A    between atoms: _158  and  _159
REMARK   66  A    between atoms: _158  and  _161
REMARK   67  A    between atoms: _161  and  _162
REMARK   68  A    between atoms: _162  and  _163
REMARK   69  A    between atoms: _166  and  _168
REMARK   70  A    between atoms: _168  and  _169
REMARK   71  A    between atoms: _168  and  _171
REMARK   72  A    between atoms: _171  and  _172
REMARK   73  A    between atoms: _175  and  _177
REMARK   74  A    between atoms: _177  and  _178
REMARK   75  A    between atoms: _177  and  _180
REMARK   76  A    between atoms: _180  and  _181
REMARK   77  A    between atoms: _181  and  _182
REMARK   78  A    between atoms: _187  and  _189
REMARK   79  A    between atoms: _189  and  _190
REMARK   80  A    between atoms: _189  and  _192
REMARK   81  A    between atoms: _192  and  _193
REMARK   82  A    between atoms: _193  and  _194
REMARK   83  A    between atoms: _199  and  _201
REMARK   84  A    between atoms: _201  and  _202
REMARK   85  A    between atoms: _201  and  _204
REMARK   86  A    between atoms: _204  and  _205
REMARK   87  A    between atoms: _210  and  _212
REMARK   88  A    between atoms: _212  and  _213
REMARK   89  A    between atoms: _212  and  _215
REMARK   90  A    between atoms: _215  and  _216
REMARK   91  A    between atoms: _221  and  _222
REMARK   92  A    between atoms: _224  and  _226
REMARK   93  A    between atoms: _226  and  _227
REMARK   94  A    between atoms: _226  and  _229
REMARK   95  A    between atoms: _229  and  _230
REMARK   96  A    between atoms: _232  and  _234
REMARK   97  A    between atoms: _241  and  _242
REMARK   98  A    between atoms: _247  and  _248
REMARK   99  A    between atoms: _253  and  _255
REMARK  100  A    between atoms: _255  and  _256
REMARK  101  A    between atoms: _255  and  _258
REMARK  102  A    between atoms: _258  and  _259
REMARK  103  A    between atoms: _259  and  _260
REMARK  104  A    between atoms: _264  and  _265
REMARK  105  A    between atoms: _270  and  _272
REMARK  106  A    between atoms: _272  and  _273
REMARK  107  A    between atoms: _272  and  _275
REMARK  108  A    between atoms: _275  and  _276
REMARK  109  A    between atoms: _281  and  _282
REMARK  110  A    between atoms: _284  and  _286
REMARK  111  A    between atoms: _286  and  _287
REMARK  112  A    between atoms: _286  and  _289
REMARK  113  A    between atoms: _289  and  _290
REMARK  114  A    between atoms: _293  and  _295
REMARK  115  A    between atoms: _295  and  _296
REMARK  116  A    between atoms: _295  and  _298
REMARK  117  A    between atoms: _298  and  _299
REMARK  118  A    between atoms: _302  and  _304
REMARK  119  A    between atoms: _304  and  _305
REMARK  120  A    between atoms: _304  and  _307
REMARK  121  A    between atoms: _310  and  _312
REMARK  122  A    between atoms: _312  and  _313
REMARK  123  A    between atoms: _312  and  _315
REMARK  124  A    between atoms: _315  and  _316
REMARK  125  A    between atoms: _321  and  _323
REMARK  126  A    between atoms: _323  and  _324
REMARK  127  A    between atoms: _323  and  _326
REMARK  128  A    between atoms: _326  and  _327
REMARK  129  A    between atoms: _330  and  _332
REMARK  130  A    between atoms: _332  and  _333
REMARK  131  A    between atoms: _332  and  _335
REMARK  132  A    between atoms: _335  and  _336
REMARK  133  A    between atoms: _336  and  _337
REMARK  134  A    between atoms: _342  and  _344
REMARK  135  A    between atoms: _344  and  _345
REMARK  136  A    between atoms: _344  and  _347
REMARK  137  A    between atoms: _347  and  _348
REMARK  138  A    between atoms: _353  and  _354
REMARK  139  A    between atoms: _356  and  _358
REMARK  140  A    between atoms: _358  and  _359
REMARK  141  A    between atoms: _358  and  _361
REMARK  142  A    between atoms: _361  and  _362
REMARK  143  A    between atoms: _362  and  _363
REMARK  144  A    between atoms: _366  and  _368
REMARK  145  A    between atoms: _368  and  _369
REMARK  146  A    between atoms: _368  and  _371
REMARK  147  A    between atoms: _371  and  _372
REMARK  148  A    between atoms: _372  and  _373
REMARK  149  A    between atoms: _378  and  _380
REMARK  150  A    between atoms: _380  and  _381
REMARK  151  A    between atoms: _380  and  _383
REMARK  152  A    between atoms: _383  and  _384
REMARK  153  A    between atoms: _384  and  _385
REMARK  154  A    between atoms: _390  and  _392
REMARK  155  A    between atoms: _392  and  _393
REMARK  156  A    between atoms: _392  and  _395
REMARK  157  A    between atoms: _395  and  _396
REMARK  158  A    between atoms: _396  and  _397
REMARK  159  A    between atoms: _397  and  _398
REMARK  160  A    between atoms: _407  and  _409
REMARK  161  A    between atoms: _409  and  _410
REMARK  162  A    between atoms: _409  and  _412
REMARK  163  A    between atoms: _412  and  _413
REMARK  164  A    between atoms: _416  and  _418
REMARK  165  A    between atoms: _418  and  _419
REMARK  166  A    between atoms: _418  and  _421
REMARK  167  A    between atoms: _421  and  _422
REMARK  168  A    between atoms: _428  and  _430
REMARK  169  A    between atoms: _430  and  _431
REMARK  170  A    between atoms: _430  and  _433
REMARK  171  A    between atoms: _433  and  _434
REMARK  172  A    between atoms: _434  and  _435
REMARK  173  A    between atoms: _435  and  _436
REMARK  174  A    between atoms: _445  and  _447
REMARK  175  A    between atoms: _447  and  _448
REMARK  176  A    between atoms: _447  and  _450
REMARK  177  A    between atoms: _450  and  _451
REMARK  178  A    between atoms: _454  and  _456
REMARK  179  A    between atoms: _456  and  _457
REMARK  180  A    between atoms: _456  and  _459
REMARK  181  A    between atoms: _459  and  _460
REMARK  182  A    between atoms: _463  and  _464
REMARK  183  A    between atoms: _469  and  _471
REMARK  184  A    between atoms: _471  and  _472
REMARK  185  A    between atoms: _471  and  _474
REMARK  186  A    between atoms: _474  and  _475
REMARK  187  A    between atoms: _478  and  _480
REMARK  188  A    between atoms: _480  and  _481
REMARK  189  A    between atoms: _484  and  _486
REMARK  190  A    between atoms: _486  and  _487
REMARK  191  A    between atoms: _486  and  _489
REMARK  192  A    between atoms: _492  and  _494
REMARK  193  A    between atoms: _494  and  _495
REMARK  194  A    between atoms: _494  and  _497
REMARK  195  A    between atoms: _500  and  _502
REMARK  196  A    between atoms: _502  and  _503
REMARK  197  A    between atoms: _502  and  _505
REMARK  198  A    between atoms: _505  and  _506
REMARK  199  A    between atoms: _509  and  _511
REMARK  200  A    between atoms: _511  and  _512
REMARK  201  A    between atoms: _511  and  _514
REMARK  202  A    between atoms: _517  and  _519
REMARK  203  A    between atoms: _519  and  _520
REMARK  204  A    between atoms: _519  and  _522
REMARK  205  A    between atoms: _522  and  _523
REMARK  206  A    between atoms: _523  and  _524
REMARK  207  A    between atoms: _526  and  _528
REMARK  208  A    between atoms: _528  and  _529
REMARK  209  A    between atoms: _528  and  _531
REMARK  210  A    between atoms: _531  and  _532
REMARK  211  A    between atoms: _538  and  _540
REMARK  212  A    between atoms: _540  and  _541
REMARK  213  A    between atoms: _540  and  _543
REMARK  214  A    between atoms: _543  and  _544
REMARK  215  A    between atoms: _548  and  _549
REMARK  216  A    between atoms: _554  and  _556
REMARK  217  A    between atoms: _556  and  _557
REMARK  218  A    between atoms: _560  and  _562
REMARK  219  A    between atoms: _562  and  _563
REMARK  220  A    between atoms: _562  and  _565
REMARK  221  A    between atoms: _565  and  _566
REMARK                            x       y       z     vdW  Elec       q    Type
REMARK                         _______ _______ _______ _____ _____    ______ ____
ROOT
ATOM      1  O   HOH     1     -13.824  21.101   9.483  0.00  0.00    +0.000 OA
ENDROOT
TORSDOF 0
REMARK  Name = ../refined-set-2016/2bys/2bys_pocket.pdb
REMARK  221 active torsions:
REMARK  status: ('A' for Active; 'I' for Inactive)
REMARK    1  A    between atoms: _1  and  _3
REMARK    2  A    between atoms: _3  and  _4
REMARK    3  A    between atoms: _3  and  _6
REMARK    4  A    between atoms: _6  and  _7
REMARK    5  A    between atoms: _10  and  _12
REMARK    6  A    between atoms: _12  and  _13
REMARK    7  A    between atoms: _12  and  _15
REMARK    8  A    between atoms: _15  and  _16
REMARK    9  A    between atoms: _19  and  _21
REMARK   10  A    between atoms: _21  and  _22
REMARK   11  A    between atoms: _21  and  _24
REMARK   12  A    between atoms: _24  and  _25
REMARK   13  A    between atoms: _28  and  _30
REMARK   14  A    between atoms: _30  and  _31
REMARK   15  A    between atoms: _34  and  _36
REMARK   16  A    between atoms: _36  and  _37
REMARK   17  A    between atoms: _36  and  _39
REMARK   18  A    between atoms: _39  and  _40
REMARK   19  A    between atoms: _45  and  _46
REMARK   20  A    between atoms: _48  and  _50
REMARK   21  A    between atoms: _50  and  _51
REMARK   22  A    between atoms: _50  and  _53
REMARK   23  A    between atoms: _53  and  _54
REMARK   24  A    between atoms: _56  and  _58
REMARK   25  A    between atoms: _58  and  _59
REMARK   26  A    between atoms: _58  and  _61
REMARK   27  A    between atoms: _61  and  _62
REMARK   28  A    between atoms: _64  and  _66
REMARK   29  A    between atoms: _66  and  _67
REMARK   30  A    between atoms: _66  and  _69
REMARK   31  A    between atoms: _72  and  _74
REMARK   32  A    between atoms: _74  and  _75
REMARK   33  A    between atoms: _74  and  _77
REMARK   34  A    between atoms: _77  and  _78
REMARK   35  A    between atoms: _78  and  _79
REMARK   36  A    between atoms: _79  and  _80
REMARK   37  A    between atoms: _80  and  _81
REMARK   38  A    between atoms: _85  and  _87
REMARK   39  A    between atoms: _87  and  _88
REMARK   40  A    between atoms: _87  and  _90
REMARK   41  A    between atoms: _90  and  _91
REMARK   42  A    between atoms: _97  and  _99
REMARK   43  A    between atoms: _99  and  _100
REMARK   44  A    between atoms: _102  and  _104
REMARK   45  A    between atoms: _104  and  _105
REMARK   46  A    between atoms: _104  and  _107
REMARK   47  A    between atoms: _107  and  _108
REMARK   48  A    between atoms: _110  and  _112
REMARK   49  A    between atoms: _112  and  _113
REMARK   50  A    between atoms: _112  and  _115
REMARK   51  A    between atoms: _115  and  _116
REMARK   52  A    between atoms: _126  and  _128
REMARK   53  A    between atoms: _128  and  _129
REMARK   54  A    between atoms: _128  and  _131
REMARK   55  A    between atoms: _134  and  _136
REMARK   56  A    between atoms: _136  and  _137
REMARK   57  A    between atoms: _136  and  _139
REMARK   58  A    between atoms: _139  and  _140
REMARK   59  A    between atoms: _145  and  _146
REMARK   60  A    between atoms: _148  and  _150
REMARK   61  A    between atoms: _150  and  _151
REMARK   62  A    between atoms: _150  and  _153
REMARK   63  A    between atoms: _153  and  _154
REMARK   64  A    between atoms: _156  and  _158
REMARK   65  A    between atoms: _158  and  _159
REMARK   66  A    between atoms: _158  and  _161
REMARK   67  A    between atoms: _161  and  _162
REMARK   68  A    between atoms: _162  and  _163
REMARK   69  A    between atoms: _166  and  _168
REMARK   70  A    between atoms: _168  and  _169
REMARK   71  A    between atoms: _168  and  _171
REMARK   72  A    between atoms: _171  and  _172
REMARK   73  A    between atoms: _175  and  _177
REMARK   74  A    between atoms: _177  and  _178
REMARK   75  A    between atoms: _177  and  _180
REMARK   76  A    between atoms: _180  and  _181
REMARK   77  A    between atoms: _181  and  _182
REMARK   78  A    between atoms: _187  and  _189
REMARK   79  A    between atoms: _189  and  _190
REMARK   80  A    between atoms: _189  and  _192
REMARK   81  A    between atoms: _192  and  _193
REMARK   82  A    between atoms: _193  and  _194
REMARK   83  A    between atoms: _199  and  _201
REMARK   84  A    between atoms: _201  and  _202
REMARK   85  A    between atoms: _201  and  _204
REMARK   86  A    between atoms: _204  and  _205
REMARK   87  A    between atoms: _210  and  _212
REMARK   88  A    between atoms: _212  and  _213
REMARK   89  A    between atoms: _212  and  _215
REMARK   90  A    between atoms: _215  and  _216
REMARK   91  A    between atoms: _221  and  _222
REMARK   92  A    between atoms: _224  and  _226
REMARK   93  A    between atoms: _226  and  _227
REMARK   94  A    between atoms: _226  and  _229
REMARK   95  A    between atoms: _229  and  _230
REMARK   96  A    between atoms: _232  and  _234
REMARK   97  A    between atoms: _241  and  _242
REMARK   98  A    between atoms: _247  and  _248
REMARK   99  A    between atoms: _253  and  _255
REMARK  100  A    between atoms: _255  and  _256
REMARK  101  A    between atoms: _255  and  _258
REMARK  102  A    between atoms: _258  and  _259
REMARK  103  A    between atoms: _259  and  _260
REMARK  104  A    between atoms: _264  and  _265
REMARK  105  A    between atoms: _270  and  _272
REMARK  106  A    between atoms: _272  and  _273
REMARK  107  A    between atoms: _272  and  _275
REMARK  108  A    between atoms: _275  and  _276
REMARK  109  A    between atoms: _281  and  _282
REMARK  110  A    between atoms: _284  and  _286
REMARK  111  A    between atoms: _286  and  _287
REMARK  112  A    between atoms: _286  and  _289
REMARK  113  A    between atoms: _289  and  _290
REMARK  114  A    between atoms: _293  and  _295
REMARK  115  A    between atoms: _295  and  _296
REMARK  116  A    between atoms: _295  and  _298
REMARK  117  A    between atoms: _298  and  _299
REMARK  118  A    between atoms: _302  and  _304
REMARK  119  A    between atoms: _304  and  _305
REMARK  120  A    between atoms: _304  and  _307
REMARK  121  A    between atoms: _310  and  _312
REMARK  122  A    between atoms: _312  and  _313
REMARK  123  A    between atoms: _312  and  _315
REMARK  124  A    between atoms: _315  and  _316
REMARK  125  A    between atoms: _321  and  _323
REMARK  126  A    between atoms: _323  and  _324
REMARK  127  A    between atoms: _323  and  _326
REMARK  128  A    between atoms: _326  and  _327
REMARK  129  A    between atoms: _330  and  _332
REMARK  130  A    between atoms: _332  and  _333
REMARK  131  A    between atoms: _332  and  _335
REMARK  132  A    between atoms: _335  and  _336
REMARK  133  A    between atoms: _336  and  _337
REMARK  134  A    between atoms: _342  and  _344
REMARK  135  A    between atoms: _344  and  _345
REMARK  136  A    between atoms: _344  and  _347
REMARK  137  A    between atoms: _347  and  _348
REMARK  138  A    between atoms: _353  and  _354
REMARK  139  A    between atoms: _356  and  _358
REMARK  140  A    between atoms: _358  and  _359
REMARK  141  A    between atoms: _358  and  _361
REMARK  142  A    between atoms: _361  and  _362
REMARK  143  A    between atoms: _362  and  _363
REMARK  144  A    between atoms: _366  and  _368
REMARK  145  A    between atoms: _368  and  _369
REMARK  146  A    between atoms: _368  and  _371
REMARK  147  A    between atoms: _371  and  _372
REMARK  148  A    between atoms: _372  and  _373
REMARK  149  A    between atoms: _378  and  _380
REMARK  150  A    between atoms: _380  and  _381
REMARK  151  A    between atoms: _380  and  _383
REMARK  152  A    between atoms: _383  and  _384
REMARK  153  A    between atoms: _384  and  _385
REMARK  154  A    between atoms: _390  and  _392
REMARK  155  A    between atoms: _392  and  _393
REMARK  156  A    between atoms: _392  and  _395
REMARK  157  A    between atoms: _395  and  _396
REMARK  158  A    between atoms: _396  and  _397
REMARK  159  A    between atoms: _397  and  _398
REMARK  160  A    between atoms: _407  and  _409
REMARK  161  A    between atoms: _409  and  _410
REMARK  162  A    between atoms: _409  and  _412
REMARK  163  A    between atoms: _412  and  _413
REMARK  164  A    between atoms: _416  and  _418
REMARK  165  A    between atoms: _418  and  _419
REMARK  166  A    between atoms: _418  and  _421
REMARK  167  A    between atoms: _421  and  _422
REMARK  168  A    between atoms: _428  and  _430
REMARK  169  A    between atoms: _430  and  _431
REMARK  170  A    between atoms: _430  and  _433
REMARK  171  A    between atoms: _433  and  _434
REMARK  172  A    between atoms: _434  and  _435
REMARK  173  A    between atoms: _435  and  _436
REMARK  174  A    between atoms: _445  and  _447
REMARK  175  A    between atoms: _447  and  _448
REMARK  176  A    between atoms: _447  and  _450
REMARK  177  A    between atoms: _450  and  _451
REMARK  178  A    between atoms: _454  and  _456
REMARK  179  A    between atoms: _456  and  _457
REMARK  180  A    between atoms: _456  and  _459
REMARK  181  A    between atoms: _459  and  _460
REMARK  182  A    between atoms: _463  and  _464
REMARK  183  A    between atoms: _469  and  _471
REMARK  184  A    between atoms: _471  and  _472
REMARK  185  A    between atoms: _471  and  _474
REMARK  186  A    between atoms: _474  and  _475
REMARK  187  A    between atoms: _478  and  _480
REMARK  188  A    between atoms: _480  and  _481
REMARK  189  A    between atoms: _484  and  _486
REMARK  190  A    between atoms: _486  and  _487
REMARK  191  A    between atoms: _486  and  _489
REMARK  192  A    between atoms: _492  and  _494
REMARK  193  A    between atoms: _494  and  _495
REMARK  194  A    between atoms: _494  and  _497
REMARK  195  A    between atoms: _500  and  _502
REMARK  196  A    between atoms: _502  and  _503
REMARK  197  A    between atoms: _502  and  _505
REMARK  198  A    between atoms: _505  and  _506
REMARK  199  A    between atoms: _509  and  _511
REMARK  200  A    between atoms: _511  and  _512
REMARK  201  A    between atoms: _511  and  _514
REMARK  202  A    between atoms: _517  and  _519
REMARK  203  A    between atoms: _519  and  _520
REMARK  204  A    between atoms: _519  and  _522
REMARK  205  A    between atoms: _522  and  _523
REMARK  206  A    between atoms: _523  and  _524
REMARK  207  A    between atoms: _526  and  _528
REMARK  208  A    between atoms: _528  and  _529
REMARK  209  A    between atoms: _528  and  _531
REMARK  210  A    between atoms: _531  and  _532
REMARK  211  A    between atoms: _538  and  _540
REMARK  212  A    between atoms: _540  and  _541
REMARK  213  A    between atoms: _540  and  _543
REMARK  214  A    between atoms: _543  and  _544
REMARK  215  A    between atoms: _548  and  _549
REMARK  216  A    between atoms: _554  and  _556
REMARK  217  A    between atoms: _556  and  _557
REMARK  218  A    between atoms: _560  and  _562
REMARK  219  A    between atoms: _562  and  _563
REMARK  220  A    between atoms: _562  and  _565
REMARK  221  A    between atoms: _565  and  _566
REMARK                            x       y       z     vdW  Elec       q    Type
REMARK                         _______ _______ _______ _____ _____    ______ ____
ROOT
ATOM      1  O   HOH     1      -3.589  27.921  12.417  0.00  0.00    +0.000 OA
ENDROOT
TORSDOF 0
REMARK  Name = ../refined-set-2016/2bys/2bys_pocket.pdb
REMARK  221 active torsions:
REMARK  status: ('A' for Active; 'I' for Inactive)
REMARK    1  A    between atoms: _1  and  _3
REMARK    2  A    between atoms: _3  and  _4
REMARK    3  A    between atoms: _3  and  _6
REMARK    4  A    between atoms: _6  and  _7
REMARK    5  A    between atoms: _10  and  _12
REMARK    6  A    between atoms: _12  and  _13
REMARK    7  A    between atoms: _12  and  _15
REMARK    8  A    between atoms: _15  and  _16
REMARK    9  A    between atoms: _19  and  _21
REMARK   10  A    between atoms: _21  and  _22
REMARK   11  A    between atoms: _21  and  _24
REMARK   12  A    between atoms: _24  and  _25
REMARK   13  A    between atoms: _28  and  _30
REMARK   14  A    between atoms: _30  and  _31
REMARK   15  A    between atoms: _34  and  _36
REMARK   16  A    between atoms: _36  and  _37
REMARK   17  A    between atoms: _36  and  _39
REMARK   18  A    between atoms: _39  and  _40
REMARK   19  A    between atoms: _45  and  _46
REMARK   20  A    between atoms: _48  and  _50
REMARK   21  A    between atoms: _50  and  _51
REMARK   22  A    between atoms: _50  and  _53
REMARK   23  A    between atoms: _53  and  _54
REMARK   24  A    between atoms: _56  and  _58
REMARK   25  A    between atoms: _58  and  _59
REMARK   26  A    between atoms: _58  and  _61
REMARK   27  A    between atoms: _61  and  _62
REMARK   28  A    between atoms: _64  and  _66
REMARK   29  A    between atoms: _66  and  _67
REMARK   30  A    between atoms: _66  and  _69
REMARK   31  A    between atoms: _72  and  _74
REMARK   32  A    between atoms: _74  and  _75
REMARK   33  A    between atoms: _74  and  _77
REMARK   34  A    between atoms: _77  and  _78
REMARK   35  A    between atoms: _78  and  _79
REMARK   36  A    between atoms: _79  and  _80
REMARK   37  A    between atoms: _80  and  _81
REMARK   38  A    between atoms: _85  and  _87
REMARK   39  A    between atoms: _87  and  _88
REMARK   40  A    between atoms: _87  and  _90
REMARK   41  A    between atoms: _90  and  _91
REMARK   42  A    between atoms: _97  and  _99
REMARK   43  A    between atoms: _99  and  _100
REMARK   44  A    between atoms: _102  and  _104
REMARK   45  A    between atoms: _104  and  _105
REMARK   46  A    between atoms: _104  and  _107
REMARK   47  A    between atoms: _107  and  _108
REMARK   48  A    between atoms: _110  and  _112
REMARK   49  A    between atoms: _112  and  _113
REMARK   50  A    between atoms: _112  and  _115
REMARK   51  A    between atoms: _115  and  _116
REMARK   52  A    between atoms: _126  and  _128
REMARK   53  A    between atoms: _128  and  _129
REMARK   54  A    between atoms: _128  and  _131
REMARK   55  A    between atoms: _134  and  _136
REMARK   56  A    between atoms: _136  and  _137
REMARK   57  A    between atoms: _136  and  _139
REMARK   58  A    between atoms: _139  and  _140
REMARK   59  A    between atoms: _145  and  _146
REMARK   60  A    between atoms: _148  and  _150
REMARK   61  A    between atoms: _150  and  _151
REMARK   62  A    between atoms: _150  and  _153
REMARK   63  A    between atoms: _153  and  _154
REMARK   64  A    between atoms: _156  and  _158
REMARK   65  A    between atoms: _158  and  _159
REMARK   66  A    between atoms: _158  and  _161
REMARK   67  A    between atoms: _161  and  _162
REMARK   68  A    between atoms: _162  and  _163
REMARK   69  A    between atoms: _166  and  _168
REMARK   70  A    between atoms: _168  and  _169
REMARK   71  A    between atoms: _168  and  _171
REMARK   72  A    between atoms: _171  and  _172
REMARK   73  A    between atoms: _175  and  _177
REMARK   74  A    between atoms: _177  and  _178
REMARK   75  A    between atoms: _177  and  _180
REMARK   76  A    between atoms: _180  and  _181
REMARK   77  A    between atoms: _181  and  _182
REMARK   78  A    between atoms: _187  and  _189
REMARK   79  A    between atoms: _189  and  _190
REMARK   80  A    between atoms: _189  and  _192
REMARK   81  A    between atoms: _192  and  _193
REMARK   82  A    between atoms: _193  and  _194
REMARK   83  A    between atoms: _199  and  _201
REMARK   84  A    between atoms: _201  and  _202
REMARK   85  A    between atoms: _201  and  _204
REMARK   86  A    between atoms: _204  and  _205
REMARK   87  A    between atoms: _210  and  _212
REMARK   88  A    between atoms: _212  and  _213
REMARK   89  A    between atoms: _212  and  _215
REMARK   90  A    between atoms: _215  and  _216
REMARK   91  A    between atoms: _221  and  _222
REMARK   92  A    between atoms: _224  and  _226
REMARK   93  A    between atoms: _226  and  _227
REMARK   94  A    between atoms: _226  and  _229
REMARK   95  A    between atoms: _229  and  _230
REMARK   96  A    between atoms: _232  and  _234
REMARK   97  A    between atoms: _241  and  _242
REMARK   98  A    between atoms: _247  and  _248
REMARK   99  A    between atoms: _253  and  _255
REMARK  100  A    between atoms: _255  and  _256
REMARK  101  A    between atoms: _255  and  _258
REMARK  102  A    between atoms: _258  and  _259
REMARK  103  A    between atoms: _259  and  _260
REMARK  104  A    between atoms: _264  and  _265
REMARK  105  A    between atoms: _270  and  _272
REMARK  106  A    between atoms: _272  and  _273
REMARK  107  A    between atoms: _272  and  _275
REMARK  108  A    between atoms: _275  and  _276
REMARK  109  A    between atoms: _281  and  _282
REMARK  110  A    between atoms: _284  and  _286
REMARK  111  A    between atoms: _286  and  _287
REMARK  112  A    between atoms: _286  and  _289
REMARK  113  A    between atoms: _289  and  _290
REMARK  114  A    between atoms: _293  and  _295
REMARK  115  A    between atoms: _295  and  _296
REMARK  116  A    between atoms: _295  and  _298
REMARK  117  A    between atoms: _298  and  _299
REMARK  118  A    between atoms: _302  and  _304
REMARK  119  A    between atoms: _304  and  _305
REMARK  120  A    between atoms: _304  and  _307
REMARK  121  A    between atoms: _310  and  _312
REMARK  122  A    between atoms: _312  and  _313
REMARK  123  A    between atoms: _312  and  _315
REMARK  124  A    between atoms: _315  and  _316
REMARK  125  A    between atoms: _321  and  _323
REMARK  126  A    between atoms: _323  and  _324
REMARK  127  A    between atoms: _323  and  _326
REMARK  128  A    between atoms: _326  and  _327
REMARK  129  A    between atoms: _330  and  _332
REMARK  130  A    between atoms: _332  and  _333
REMARK  131  A    between atoms: _332  and  _335
REMARK  132  A    between atoms: _335  and  _336
REMARK  133  A    between atoms: _336  and  _337
REMARK  134  A    between atoms: _342  and  _344
REMARK  135  A    between atoms: _344  and  _345
REMARK  136  A    between atoms: _344  and  _347
REMARK  137  A    between atoms: _347  and  _348
REMARK  138  A    between atoms: _353  and  _354
REMARK  139  A    between atoms: _356  and  _358
REMARK  140  A    between atoms: _358  and  _359
REMARK  141  A    between atoms: _358  and  _361
REMARK  142  A    between atoms: _361  and  _362
REMARK  143  A    between atoms: _362  and  _363
REMARK  144  A    between atoms: _366  and  _368
REMARK  145  A    between atoms: _368  and  _369
REMARK  146  A    between atoms: _368  and  _371
REMARK  147  A    between atoms: _371  and  _372
REMARK  148  A    between atoms: _372  and  _373
REMARK  149  A    between atoms: _378  and  _380
REMARK  150  A    between atoms: _380  and  _381
REMARK  151  A    between atoms: _380  and  _383
REMARK  152  A    between atoms: _383  and  _384
REMARK  153  A    between atoms: _384  and  _385
REMARK  154  A    between atoms: _390  and  _392
REMARK  155  A    between atoms: _392  and  _393
REMARK  156  A    between atoms: _392  and  _395
REMARK  157  A    between atoms: _395  and  _396
REMARK  158  A    between atoms: _396  and  _397
REMARK  159  A    between atoms: _397  and  _398
REMARK  160  A    between atoms: _407  and  _409
REMARK  161  A    between atoms: _409  and  _410
REMARK  162  A    between atoms: _409  and  _412
REMARK  163  A    between atoms: _412  and  _413
REMARK  164  A    between atoms: _416  and  _418
REMARK  165  A    between atoms: _418  and  _419
REMARK  166  A    between atoms: _418  and  _421
REMARK  167  A    between atoms: _421  and  _422
REMARK  168  A    between atoms: _428  and  _430
REMARK  169  A    between atoms: _430  and  _431
REMARK  170  A    between atoms: _430  and  _433
REMARK  171  A    between atoms: _433  and  _434
REMARK  172  A    between atoms: _434  and  _435
REMARK  173  A    between atoms: _435  and  _436
REMARK  174  A    between atoms: _445  and  _447
REMARK  175  A    between atoms: _447  and  _448
REMARK  176  A    between atoms: _447  and  _450
REMARK  177  A    between atoms: _450  and  _451
REMARK  178  A    between atoms: _454  and  _456
REMARK  179  A    between atoms: _456  and  _457
REMARK  180  A    between atoms: _456  and  _459
REMARK  181  A    between atoms: _459  and  _460
REMARK  182  A    between atoms: _463  and  _464
REMARK  183  A    between atoms: _469  and  _471
REMARK  184  A    between atoms: _471  and  _472
REMARK  185  A    between atoms: _471  and  _474
REMARK  186  A    between atoms: _474  and  _475
REMARK  187  A    between atoms: _478  and  _480
REMARK  188  A    between atoms: _480  and  _481
REMARK  189  A    between atoms: _484  and  _486
REMARK  190  A    between atoms: _486  and  _487
REMARK  191  A    between atoms: _486  and  _489
REMARK  192  A    between atoms: _492  and  _494
REMARK  193  A    between atoms: _494  and  _495
REMARK  194  A    between atoms: _494  and  _497
REMARK  195  A    between atoms: _500  and  _502
REMARK  196  A    between atoms: _502  and  _503
REMARK  197  A    between atoms: _502  and  _505
REMARK  198  A    between atoms: _505  and  _506
REMARK  199  A    between atoms: _509  and  _511
REMARK  200  A    between atoms: _511  and  _512
REMARK  201  A    between atoms: _511  and  _514
REMARK  202  A    between atoms: _517  and  _519
REMARK  203  A    between atoms: _519  and  _520
REMARK  204  A    between atoms: _519  and  _522
REMARK  205  A    between atoms: _522  and  _523
REMARK  206  A    between atoms: _523  and  _524
REMARK  207  A    between atoms: _526  and  _528
REMARK  208  A    between atoms: _528  and  _529
REMARK  209  A    between atoms: _528  and  _531
REMARK  210  A    between atoms: _531  and  _532
REMARK  211  A    between atoms: _538  and  _540
REMARK  212  A    between atoms: _540  and  _541
REMARK  213  A    between atoms: _540  and  _543
REMARK  214  A    between atoms: _543  and  _544
REMARK  215  A    between atoms: _548  and  _549
REMARK  216  A    between atoms: _554  and  _556
REMARK  217  A    between atoms: _556  and  _557
REMARK  218  A    between atoms: _560  and  _562
REMARK  219  A    between atoms: _562  and  _563
REMARK  220  A    between atoms: _562  and  _565
REMARK  221  A    between atoms: _565  and  _566
REMARK                            x       y       z     vdW  Elec       q    Type
REMARK                         _______ _______ _______ _____ _____    ______ ____
ROOT
ATOM      1  O   HOH     1     -13.831  24.983   4.644  0.00  0.00    +0.000 OA
ENDROOT
TORSDOF 0
REMARK  Name = ../refined-set-2016/2bys/2bys_pocket.pdb
REMARK  221 active torsions:
REMARK  status: ('A' for Active; 'I' for Inactive)
REMARK    1  A    between atoms: _1  and  _3
REMARK    2  A    between atoms: _3  and  _4
REMARK    3  A    between atoms: _3  and  _6
REMARK    4  A    between atoms: _6  and  _7
REMARK    5  A    between atoms: _10  and  _12
REMARK    6  A    between atoms: _12  and  _13
REMARK    7  A    between atoms: _12  and  _15
REMARK    8  A    between atoms: _15  and  _16
REMARK    9  A    between atoms: _19  and  _21
REMARK   10  A    between atoms: _21  and  _22
REMARK   11  A    between atoms: _21  and  _24
REMARK   12  A    between atoms: _24  and  _25
REMARK   13  A    between atoms: _28  and  _30
REMARK   14  A    between atoms: _30  and  _31
REMARK   15  A    between atoms: _34  and  _36
REMARK   16  A    between atoms: _36  and  _37
REMARK   17  A    between atoms: _36  and  _39
REMARK   18  A    between atoms: _39  and  _40
REMARK   19  A    between atoms: _45  and  _46
REMARK   20  A    between atoms: _48  and  _50
REMARK   21  A    between atoms: _50  and  _51
REMARK   22  A    between atoms: _50  and  _53
REMARK   23  A    between atoms: _53  and  _54
REMARK   24  A    between atoms: _56  and  _58
REMARK   25  A    between atoms: _58  and  _59
REMARK   26  A    between atoms: _58  and  _61
REMARK   27  A    between atoms: _61  and  _62
REMARK   28  A    between atoms: _64  and  _66
REMARK   29  A    between atoms: _66  and  _67
REMARK   30  A    between atoms: _66  and  _69
REMARK   31  A    between atoms: _72  and  _74
REMARK   32  A    between atoms: _74  and  _75
REMARK   33  A    between atoms: _74  and  _77
REMARK   34  A    between atoms: _77  and  _78
REMARK   35  A    between atoms: _78  and  _79
REMARK   36  A    between atoms: _79  and  _80
REMARK   37  A    between atoms: _80  and  _81
REMARK   38  A    between atoms: _85  and  _87
REMARK   39  A    between atoms: _87  and  _88
REMARK   40  A    between atoms: _87  and  _90
REMARK   41  A    between atoms: _90  and  _91
REMARK   42  A    between atoms: _97  and  _99
REMARK   43  A    between atoms: _99  and  _100
REMARK   44  A    between atoms: _102  and  _104
REMARK   45  A    between atoms: _104  and  _105
REMARK   46  A    between atoms: _104  and  _107
REMARK   47  A    between atoms: _107  and  _108
REMARK   48  A    between atoms: _110  and  _112
REMARK   49  A    between atoms: _112  and  _113
REMARK   50  A    between atoms: _112  and  _115
REMARK   51  A    between atoms: _115  and  _116
REMARK   52  A    between atoms: _126  and  _128
REMARK   53  A    between atoms: _128  and  _129
REMARK   54  A    between atoms: _128  and  _131
REMARK   55  A    between atoms: _134  and  _136
REMARK   56  A    between atoms: _136  and  _137
REMARK   57  A    between atoms: _136  and  _139
REMARK   58  A    between atoms: _139  and  _140
REMARK   59  A    between atoms: _145  and  _146
REMARK   60  A    between atoms: _148  and  _150
REMARK   61  A    between atoms: _150  and  _151
REMARK   62  A    between atoms: _150  and  _153
REMARK   63  A    between atoms: _153  and  _154
REMARK   64  A    between atoms: _156  and  _158
REMARK   65  A    between atoms: _158  and  _159
REMARK   66  A    between atoms: _158  and  _161
REMARK   67  A    between atoms: _161  and  _162
REMARK   68  A    between atoms: _162  and  _163
REMARK   69  A    between atoms: _166  and  _168
REMARK   70  A    between atoms: _168  and  _169
REMARK   71  A    between atoms: _168  and  _171
REMARK   72  A    between atoms: _171  and  _172
REMARK   73  A    between atoms: _175  and  _177
REMARK   74  A    between atoms: _177  and  _178
REMARK   75  A    between atoms: _177  and  _180
REMARK   76  A    between atoms: _180  and  _181
REMARK   77  A    between atoms: _181  and  _182
REMARK   78  A    between atoms: _187  and  _189
REMARK   79  A    between atoms: _189  and  _190
REMARK   80  A    between atoms: _189  and  _192
REMARK   81  A    between atoms: _192  and  _193
REMARK   82  A    between atoms: _193  and  _194
REMARK   83  A    between atoms: _199  and  _201
REMARK   84  A    between atoms: _201  and  _202
REMARK   85  A    between atoms: _201  and  _204
REMARK   86  A    between atoms: _204  and  _205
REMARK   87  A    between atoms: _210  and  _212
REMARK   88  A    between atoms: _212  and  _213
REMARK   89  A    between atoms: _212  and  _215
REMARK   90  A    between atoms: _215  and  _216
REMARK   91  A    between atoms: _221  and  _222
REMARK   92  A    between atoms: _224  and  _226
REMARK   93  A    between atoms: _226  and  _227
REMARK   94  A    between atoms: _226  and  _229
REMARK   95  A    between atoms: _229  and  _230
REMARK   96  A    between atoms: _232  and  _234
REMARK   97  A    between atoms: _241  and  _242
REMARK   98  A    between atoms: _247  and  _248
REMARK   99  A    between atoms: _253  and  _255
REMARK  100  A    between atoms: _255  and  _256
REMARK  101  A    between atoms: _255  and  _258
REMARK  102  A    between atoms: _258  and  _259
REMARK  103  A    between atoms: _259  and  _260
REMARK  104  A    between atoms: _264  and  _265
REMARK  105  A    between atoms: _270  and  _272
REMARK  106  A    between atoms: _272  and  _273
REMARK  107  A    between atoms: _272  and  _275
REMARK  108  A    between atoms: _275  and  _276
REMARK  109  A    between atoms: _281  and  _282
REMARK  110  A    between atoms: _284  and  _286
REMARK  111  A    between atoms: _286  and  _287
REMARK  112  A    between atoms: _286  and  _289
REMARK  113  A    between atoms: _289  and  _290
REMARK  114  A    between atoms: _293  and  _295
REMARK  115  A    between atoms: _295  and  _296
REMARK  116  A    between atoms: _295  and  _298
REMARK  117  A    between atoms: _298  and  _299
REMARK  118  A    between atoms: _302  and  _304
REMARK  119  A    between atoms: _304  and  _305
REMARK  120  A    between atoms: _304  and  _307
REMARK  121  A    between atoms: _310  and  _312
REMARK  122  A    between atoms: _312  and  _313
REMARK  123  A    between atoms: _312  and  _315
REMARK  124  A    between atoms: _315  and  _316
REMARK  125  A    between atoms: _321  and  _323
REMARK  126  A    between atoms: _323  and  _324
REMARK  127  A    between atoms: _323  and  _326
REMARK  128  A    between atoms: _326  and  _327
REMARK  129  A    between atoms: _330  and  _332
REMARK  130  A    between atoms: _332  and  _333
REMARK  131  A    between atoms: _332  and  _335
REMARK  132  A    between atoms: _335  and  _336
REMARK  133  A    between atoms: _336  and  _337
REMARK  134  A    between atoms: _342  and  _344
REMARK  135  A    between atoms: _344  and  _345
REMARK  136  A    between atoms: _344  and  _347
REMARK  137  A    between atoms: _347  and  _348
REMARK  138  A    between atoms: _353  and  _354
REMARK  139  A    between atoms: _356  and  _358
REMARK  140  A    between atoms: _358  and  _359
REMARK  141  A    between atoms: _358  and  _361
REMARK  142  A    between atoms: _361  and  _362
REMARK  143  A    between atoms: _362  and  _363
REMARK  144  A    between atoms: _366  and  _368
REMARK  145  A    between atoms: _368  and  _369
REMARK  146  A    between atoms: _368  and  _371
REMARK  147  A    between atoms: _371  and  _372
REMARK  148  A    between atoms: _372  and  _373
REMARK  149  A    between atoms: _378  and  _380
REMARK  150  A    between atoms: _380  and  _381
REMARK  151  A    between atoms: _380  and  _383
REMARK  152  A    between atoms: _383  and  _384
REMARK  153  A    between atoms: _384  and  _385
REMARK  154  A    between atoms: _390  and  _392
REMARK  155  A    between atoms: _392  and  _393
REMARK  156  A    between atoms: _392  and  _395
REMARK  157  A    between atoms: _395  and  _396
REMARK  158  A    between atoms: _396  and  _397
REMARK  159  A    between atoms: _397  and  _398
REMARK  160  A    between atoms: _407  and  _409
REMARK  161  A    between atoms: _409  and  _410
REMARK  162  A    between atoms: _409  and  _412
REMARK  163  A    between atoms: _412  and  _413
REMARK  164  A    between atoms: _416  and  _418
REMARK  165  A    between atoms: _418  and  _419
REMARK  166  A    between atoms: _418  and  _421
REMARK  167  A    between atoms: _421  and  _422
REMARK  168  A    between atoms: _428  and  _430
REMARK  169  A    between atoms: _430  and  _431
REMARK  170  A    between atoms: _430  and  _433
REMARK  171  A    between atoms: _433  and  _434
REMARK  172  A    between atoms: _434  and  _435
REMARK  173  A    between atoms: _435  and  _436
REMARK  174  A    between atoms: _445  and  _447
REMARK  175  A    between atoms: _447  and  _448
REMARK  176  A    between atoms: _447  and  _450
REMARK  177  A    between atoms: _450  and  _451
REMARK  178  A    between atoms: _454  and  _456
REMARK  179  A    between atoms: _456  and  _457
REMARK  180  A    between atoms: _456  and  _459
REMARK  181  A    between atoms: _459  and  _460
REMARK  182  A    between atoms: _463  and  _464
REMARK  183  A    between atoms: _469  and  _471
REMARK  184  A    between atoms: _471  and  _472
REMARK  185  A    between atoms: _471  and  _474
REMARK  186  A    between atoms: _474  and  _475
REMARK  187  A    between atoms: _478  and  _480
REMARK  188  A    between atoms: _480  and  _481
REMARK  189  A    between atoms: _484  and  _486
REMARK  190  A    between atoms: _486  and  _487
REMARK  191  A    between atoms: _486  and  _489
REMARK  192  A    between atoms: _492  and  _494
REMARK  193  A    between atoms: _494  and  _495
REMARK  194  A    between atoms: _494  and  _497
REMARK  195  A    between atoms: _500  and  _502
REMARK  196  A    between atoms: _502  and  _503
REMARK  197  A    between atoms: _502  and  _505
REMARK  198  A    between atoms: _505  and  _506
REMARK  199  A    between atoms: _509  and  _511
REMARK  200  A    between atoms: _511  and  _512
REMARK  201  A    between atoms: _511  and  _514
REMARK  202  A    between atoms: _517  and  _519
REMARK  203  A    between atoms: _519  and  _520
REMARK  204  A    between atoms: _519  and  _522
REMARK  205  A    between atoms: _522  and  _523
REMARK  206  A    between atoms: _523  and  _524
REMARK  207  A    between atoms: _526  and  _528
REMARK  208  A    between atoms: _528  and  _529
REMARK  209  A    between atoms: _528  and  _531
REMARK  210  A    between atoms: _531  and  _532
REMARK  211  A    between atoms: _538  and  _540
REMARK  212  A    between atoms: _540  and  _541
REMARK  213  A    between atoms: _540  and  _543
REMARK  214  A    between atoms: _543  and  _544
REMARK  215  A    between atoms: _548  and  _549
REMARK  216  A    between atoms: _554  and  _556
REMARK  217  A    between atoms: _556  and  _557
REMARK  218  A    between atoms: _560  and  _562
REMARK  219  A    between atoms: _562  and  _563
REMARK  220  A    between atoms: _562  and  _565
REMARK  221  A    between atoms: _565  and  _566
REMARK                            x       y       z     vdW  Elec       q    Type
REMARK                         _______ _______ _______ _____ _____    ______ ____
ROOT
ATOM      1  O   HOH     1      -4.419  18.023   6.023  0.00  0.00    +0.000 OA
ENDROOT
TORSDOF 0
REMARK  Name = ../refined-set-2016/2bys/2bys_pocket.pdb
REMARK  221 active torsions:
REMARK  status: ('A' for Active; 'I' for Inactive)
REMARK    1  A    between atoms: _1  and  _3
REMARK    2  A    between atoms: _3  and  _4
REMARK    3  A    between atoms: _3  and  _6
REMARK    4  A    between atoms: _6  and  _7
REMARK    5  A    between atoms: _10  and  _12
REMARK    6  A    between atoms: _12  and  _13
REMARK    7  A    between atoms: _12  and  _15
REMARK    8  A    between atoms: _15  and  _16
REMARK    9  A    between atoms: _19  and  _21
REMARK   10  A    between atoms: _21  and  _22
REMARK   11  A    between atoms: _21  and  _24
REMARK   12  A    between atoms: _24  and  _25
REMARK   13  A    between atoms: _28  and  _30
REMARK   14  A    between atoms: _30  and  _31
REMARK   15  A    between atoms: _34  and  _36
REMARK   16  A    between atoms: _36  and  _37
REMARK   17  A    between atoms: _36  and  _39
REMARK   18  A    between atoms: _39  and  _40
REMARK   19  A    between atoms: _45  and  _46
REMARK   20  A    between atoms: _48  and  _50
REMARK   21  A    between atoms: _50  and  _51
REMARK   22  A    between atoms: _50  and  _53
REMARK   23  A    between atoms: _53  and  _54
REMARK   24  A    between atoms: _56  and  _58
REMARK   25  A    between atoms: _58  and  _59
REMARK   26  A    between atoms: _58  and  _61
REMARK   27  A    between atoms: _61  and  _62
REMARK   28  A    between atoms: _64  and  _66
REMARK   29  A    between atoms: _66  and  _67
REMARK   30  A    between atoms: _66  and  _69
REMARK   31  A    between atoms: _72  and  _74
REMARK   32  A    between atoms: _74  and  _75
REMARK   33  A    between atoms: _74  and  _77
REMARK   34  A    between atoms: _77  and  _78
REMARK   35  A    between atoms: _78  and  _79
REMARK   36  A    between atoms: _79  and  _80
REMARK   37  A    between atoms: _80  and  _81
REMARK   38  A    between atoms: _85  and  _87
REMARK   39  A    between atoms: _87  and  _88
REMARK   40  A    between atoms: _87  and  _90
REMARK   41  A    between atoms: _90  and  _91
REMARK   42  A    between atoms: _97  and  _99
REMARK   43  A    between atoms: _99  and  _100
REMARK   44  A    between atoms: _102  and  _104
REMARK   45  A    between atoms: _104  and  _105
REMARK   46  A    between atoms: _104  and  _107
REMARK   47  A    between atoms: _107  and  _108
REMARK   48  A    between atoms: _110  and  _112
REMARK   49  A    between atoms: _112  and  _113
REMARK   50  A    between atoms: _112  and  _115
REMARK   51  A    between atoms: _115  and  _116
REMARK   52  A    between atoms: _126  and  _128
REMARK   53  A    between atoms: _128  and  _129
REMARK   54  A    between atoms: _128  and  _131
REMARK   55  A    between atoms: _134  and  _136
REMARK   56  A    between atoms: _136  and  _137
REMARK   57  A    between atoms: _136  and  _139
REMARK   58  A    between atoms: _139  and  _140
REMARK   59  A    between atoms: _145  and  _146
REMARK   60  A    between atoms: _148  and  _150
REMARK   61  A    between atoms: _150  and  _151
REMARK   62  A    between atoms: _150  and  _153
REMARK   63  A    between atoms: _153  and  _154
REMARK   64  A    between atoms: _156  and  _158
REMARK   65  A    between atoms: _158  and  _159
REMARK   66  A    between atoms: _158  and  _161
REMARK   67  A    between atoms: _161  and  _162
REMARK   68  A    between atoms: _162  and  _163
REMARK   69  A    between atoms: _166  and  _168
REMARK   70  A    between atoms: _168  and  _169
REMARK   71  A    between atoms: _168  and  _171
REMARK   72  A    between atoms: _171  and  _172
REMARK   73  A    between atoms: _175  and  _177
REMARK   74  A    between atoms: _177  and  _178
REMARK   75  A    between atoms: _177  and  _180
REMARK   76  A    between atoms: _180  and  _181
REMARK   77  A    between atoms: _181  and  _182
REMARK   78  A    between atoms: _187  and  _189
REMARK   79  A    between atoms: _189  and  _190
REMARK   80  A    between atoms: _189  and  _192
REMARK   81  A    between atoms: _192  and  _193
REMARK   82  A    between atoms: _193  and  _194
REMARK   83  A    between atoms: _199  and  _201
REMARK   84  A    between atoms: _201  and  _202
REMARK   85  A    between atoms: _201  and  _204
REMARK   86  A    between atoms: _204  and  _205
REMARK   87  A    between atoms: _210  and  _212
REMARK   88  A    between atoms: _212  and  _213
REMARK   89  A    between atoms: _212  and  _215
REMARK   90  A    between atoms: _215  and  _216
REMARK   91  A    between atoms: _221  and  _222
REMARK   92  A    between atoms: _224  and  _226
REMARK   93  A    between atoms: _226  and  _227
REMARK   94  A    between atoms: _226  and  _229
REMARK   95  A    between atoms: _229  and  _230
REMARK   96  A    between atoms: _232  and  _234
REMARK   97  A    between atoms: _241  and  _242
REMARK   98  A    between atoms: _247  and  _248
REMARK   99  A    between atoms: _253  and  _255
REMARK  100  A    between atoms: _255  and  _256
REMARK  101  A    between atoms: _255  and  _258
REMARK  102  A    between atoms: _258  and  _259
REMARK  103  A    between atoms: _259  and  _260
REMARK  104  A    between atoms: _264  and  _265
REMARK  105  A    between atoms: _270  and  _272
REMARK  106  A    between atoms: _272  and  _273
REMARK  107  A    between atoms: _272  and  _275
REMARK  108  A    between atoms: _275  and  _276
REMARK  109  A    between atoms: _281  and  _282
REMARK  110  A    between atoms: _284  and  _286
REMARK  111  A    between atoms: _286  and  _287
REMARK  112  A    between atoms: _286  and  _289
REMARK  113  A    between atoms: _289  and  _290
REMARK  114  A    between atoms: _293  and  _295
REMARK  115  A    between atoms: _295  and  _296
REMARK  116  A    between atoms: _295  and  _298
REMARK  117  A    between atoms: _298  and  _299
REMARK  118  A    between atoms: _302  and  _304
REMARK  119  A    between atoms: _304  and  _305
REMARK  120  A    between atoms: _304  and  _307
REMARK  121  A    between atoms: _310  and  _312
REMARK  122  A    between atoms: _312  and  _313
REMARK  123  A    between atoms: _312  and  _315
REMARK  124  A    between atoms: _315  and  _316
REMARK  125  A    between atoms: _321  and  _323
REMARK  126  A    between atoms: _323  and  _324
REMARK  127  A    between atoms: _323  and  _326
REMARK  128  A    between atoms: _326  and  _327
REMARK  129  A    between atoms: _330  and  _332
REMARK  130  A    between atoms: _332  and  _333
REMARK  131  A    between atoms: _332  and  _335
REMARK  132  A    between atoms: _335  and  _336
REMARK  133  A    between atoms: _336  and  _337
REMARK  134  A    between atoms: _342  and  _344
REMARK  135  A    between atoms: _344  and  _345
REMARK  136  A    between atoms: _344  and  _347
REMARK  137  A    between atoms: _347  and  _348
REMARK  138  A    between atoms: _353  and  _354
REMARK  139  A    between atoms: _356  and  _358
REMARK  140  A    between atoms: _358  and  _359
REMARK  141  A    between atoms: _358  and  _361
REMARK  142  A    between atoms: _361  and  _362
REMARK  143  A    between atoms: _362  and  _363
REMARK  144  A    between atoms: _366  and  _368
REMARK  145  A    between atoms: _368  and  _369
REMARK  146  A    between atoms: _368  and  _371
REMARK  147  A    between atoms: _371  and  _372
REMARK  148  A    between atoms: _372  and  _373
REMARK  149  A    between atoms: _378  and  _380
REMARK  150  A    between atoms: _380  and  _381
REMARK  151  A    between atoms: _380  and  _383
REMARK  152  A    between atoms: _383  and  _384
REMARK  153  A    between atoms: _384  and  _385
REMARK  154  A    between atoms: _390  and  _392
REMARK  155  A    between atoms: _392  and  _393
REMARK  156  A    between atoms: _392  and  _395
REMARK  157  A    between atoms: _395  and  _396
REMARK  158  A    between atoms: _396  and  _397
REMARK  159  A    between atoms: _397  and  _398
REMARK  160  A    between atoms: _407  and  _409
REMARK  161  A    between atoms: _409  and  _410
REMARK  162  A    between atoms: _409  and  _412
REMARK  163  A    between atoms: _412  and  _413
REMARK  164  A    between atoms: _416  and  _418
REMARK  165  A    between atoms: _418  and  _419
REMARK  166  A    between atoms: _418  and  _421
REMARK  167  A    between atoms: _421  and  _422
REMARK  168  A    between atoms: _428  and  _430
REMARK  169  A    between atoms: _430  and  _431
REMARK  170  A    between atoms: _430  and  _433
REMARK  171  A    between atoms: _433  and  _434
REMARK  172  A    between atoms: _434  and  _435
REMARK  173  A    between atoms: _435  and  _436
REMARK  174  A    between atoms: _445  and  _447
REMARK  175  A    between atoms: _447  and  _448
REMARK  176  A    between atoms: _447  and  _450
REMARK  177  A    between atoms: _450  and  _451
REMARK  178  A    between atoms: _454  and  _456
REMARK  179  A    between atoms: _456  and  _457
REMARK  180  A    between atoms: _456  and  _459
REMARK  181  A    between atoms: _459  and  _460
REMARK  182  A    between atoms: _463  and  _464
REMARK  183  A    between atoms: _469  and  _471
REMARK  184  A    between atoms: _471  and  _472
REMARK  185  A    between atoms: _471  and  _474
REMARK  186  A    between atoms: _474  and  _475
REMARK  187  A    between atoms: _478  and  _480
REMARK  188  A    between atoms: _480  and  _481
REMARK  189  A    between atoms: _484  and  _486
REMARK  190  A    between atoms: _486  and  _487
REMARK  191  A    between atoms: _486  and  _489
REMARK  192  A    between atoms: _492  and  _494
REMARK  193  A    between atoms: _494  and  _495
REMARK  194  A    between atoms: _494  and  _497
REMARK  195  A    between atoms: _500  and  _502
REMARK  196  A    between atoms: _502  and  _503
REMARK  197  A    between atoms: _502  and  _505
REMARK  198  A    between atoms: _505  and  _506
REMARK  199  A    between atoms: _509  and  _511
REMARK  200  A    between atoms: _511  and  _512
REMARK  201  A    between atoms: _511  and  _514
REMARK  202  A    between atoms: _517  and  _519
REMARK  203  A    between atoms: _519  and  _520
REMARK  204  A    between atoms: _519  and  _522
REMARK  205  A    between atoms: _522  and  _523
REMARK  206  A    between atoms: _523  and  _524
REMARK  207  A    between atoms: _526  and  _528
REMARK  208  A    between atoms: _528  and  _529
REMARK  209  A    between atoms: _528  and  _531
REMARK  210  A    between atoms: _531  and  _532
REMARK  211  A    between atoms: _538  and  _540
REMARK  212  A    between atoms: _540  and  _541
REMARK  213  A    between atoms: _540  and  _543
REMARK  214  A    between atoms: _543  and  _544
REMARK  215  A    between atoms: _548  and  _549
REMARK  216  A    between atoms: _554  and  _556
REMARK  217  A    between atoms: _556  and  _557
REMARK  218  A    between atoms: _560  and  _562
REMARK  219  A    between atoms: _562  and  _563
REMARK  220  A    between atoms: _562  and  _565
REMARK  221  A    between atoms: _565  and  _566
REMARK                            x       y       z     vdW  Elec       q    Type
REMARK                         _______ _______ _______ _____ _____    ______ ____
ROOT
ATOM      1  O   HOH     1      -3.942  20.524   7.331  0.00  0.00    +0.000 OA
ENDROOT
TORSDOF 0
REMARK  Name = ../refined-set-2016/2bys/2bys_pocket.pdb
REMARK  221 active torsions:
REMARK  status: ('A' for Active; 'I' for Inactive)
REMARK    1  A    between atoms: _1  and  _3
REMARK    2  A    between atoms: _3  and  _4
REMARK    3  A    between atoms: _3  and  _6
REMARK    4  A    between atoms: _6  and  _7
REMARK    5  A    between atoms: _10  and  _12
REMARK    6  A    between atoms: _12  and  _13
REMARK    7  A    between atoms: _12  and  _15
REMARK    8  A    between atoms: _15  and  _16
REMARK    9  A    between atoms: _19  and  _21
REMARK   10  A    between atoms: _21  and  _22
REMARK   11  A    between atoms: _21  and  _24
REMARK   12  A    between atoms: _24  and  _25
REMARK   13  A    between atoms: _28  and  _30
REMARK   14  A    between atoms: _30  and  _31
REMARK   15  A    between atoms: _34  and  _36
REMARK   16  A    between atoms: _36  and  _37
REMARK   17  A    between atoms: _36  and  _39
REMARK   18  A    between atoms: _39  and  _40
REMARK   19  A    between atoms: _45  and  _46
REMARK   20  A    between atoms: _48  and  _50
REMARK   21  A    between atoms: _50  and  _51
REMARK   22  A    between atoms: _50  and  _53
REMARK   23  A    between atoms: _53  and  _54
REMARK   24  A    between atoms: _56  and  _58
REMARK   25  A    between atoms: _58  and  _59
REMARK   26  A    between atoms: _58  and  _61
REMARK   27  A    between atoms: _61  and  _62
REMARK   28  A    between atoms: _64  and  _66
REMARK   29  A    between atoms: _66  and  _67
REMARK   30  A    between atoms: _66  and  _69
REMARK   31  A    between atoms: _72  and  _74
REMARK   32  A    between atoms: _74  and  _75
REMARK   33  A    between atoms: _74  and  _77
REMARK   34  A    between atoms: _77  and  _78
REMARK   35  A    between atoms: _78  and  _79
REMARK   36  A    between atoms: _79  and  _80
REMARK   37  A    between atoms: _80  and  _81
REMARK   38  A    between atoms: _85  and  _87
REMARK   39  A    between atoms: _87  and  _88
REMARK   40  A    between atoms: _87  and  _90
REMARK   41  A    between atoms: _90  and  _91
REMARK   42  A    between atoms: _97  and  _99
REMARK   43  A    between atoms: _99  and  _100
REMARK   44  A    between atoms: _102  and  _104
REMARK   45  A    between atoms: _104  and  _105
REMARK   46  A    between atoms: _104  and  _107
REMARK   47  A    between atoms: _107  and  _108
REMARK   48  A    between atoms: _110  and  _112
REMARK   49  A    between atoms: _112  and  _113
REMARK   50  A    between atoms: _112  and  _115
REMARK   51  A    between atoms: _115  and  _116
REMARK   52  A    between atoms: _126  and  _128
REMARK   53  A    between atoms: _128  and  _129
REMARK   54  A    between atoms: _128  and  _131
REMARK   55  A    between atoms: _134  and  _136
REMARK   56  A    between atoms: _136  and  _137
REMARK   57  A    between atoms: _136  and  _139
REMARK   58  A    between atoms: _139  and  _140
REMARK   59  A    between atoms: _145  and  _146
REMARK   60  A    between atoms: _148  and  _150
REMARK   61  A    between atoms: _150  and  _151
REMARK   62  A    between atoms: _150  and  _153
REMARK   63  A    between atoms: _153  and  _154
REMARK   64  A    between atoms: _156  and  _158
REMARK   65  A    between atoms: _158  and  _159
REMARK   66  A    between atoms: _158  and  _161
REMARK   67  A    between atoms: _161  and  _162
REMARK   68  A    between atoms: _162  and  _163
REMARK   69  A    between atoms: _166  and  _168
REMARK   70  A    between atoms: _168  and  _169
REMARK   71  A    between atoms: _168  and  _171
REMARK   72  A    between atoms: _171  and  _172
REMARK   73  A    between atoms: _175  and  _177
REMARK   74  A    between atoms: _177  and  _178
REMARK   75  A    between atoms: _177  and  _180
REMARK   76  A    between atoms: _180  and  _181
REMARK   77  A    between atoms: _181  and  _182
REMARK   78  A    between atoms: _187  and  _189
REMARK   79  A    between atoms: _189  and  _190
REMARK   80  A    between atoms: _189  and  _192
REMARK   81  A    between atoms: _192  and  _193
REMARK   82  A    between atoms: _193  and  _194
REMARK   83  A    between atoms: _199  and  _201
REMARK   84  A    between atoms: _201  and  _202
REMARK   85  A    between atoms: _201  and  _204
REMARK   86  A    between atoms: _204  and  _205
REMARK   87  A    between atoms: _210  and  _212
REMARK   88  A    between atoms: _212  and  _213
REMARK   89  A    between atoms: _212  and  _215
REMARK   90  A    between atoms: _215  and  _216
REMARK   91  A    between atoms: _221  and  _222
REMARK   92  A    between atoms: _224  and  _226
REMARK   93  A    between atoms: _226  and  _227
REMARK   94  A    between atoms: _226  and  _229
REMARK   95  A    between atoms: _229  and  _230
REMARK   96  A    between atoms: _232  and  _234
REMARK   97  A    between atoms: _241  and  _242
REMARK   98  A    between atoms: _247  and  _248
REMARK   99  A    between atoms: _253  and  _255
REMARK  100  A    between atoms: _255  and  _256
REMARK  101  A    between atoms: _255  and  _258
REMARK  102  A    between atoms: _258  and  _259
REMARK  103  A    between atoms: _259  and  _260
REMARK  104  A    between atoms: _264  and  _265
REMARK  105  A    between atoms: _270  and  _272
REMARK  106  A    between atoms: _272  and  _273
REMARK  107  A    between atoms: _272  and  _275
REMARK  108  A    between atoms: _275  and  _276
REMARK  109  A    between atoms: _281  and  _282
REMARK  110  A    between atoms: _284  and  _286
REMARK  111  A    between atoms: _286  and  _287
REMARK  112  A    between atoms: _286  and  _289
REMARK  113  A    between atoms: _289  and  _290
REMARK  114  A    between atoms: _293  and  _295
REMARK  115  A    between atoms: _295  and  _296
REMARK  116  A    between atoms: _295  and  _298
REMARK  117  A    between atoms: _298  and  _299
REMARK  118  A    between atoms: _302  and  _304
REMARK  119  A    between atoms: _304  and  _305
REMARK  120  A    between atoms: _304  and  _307
REMARK  121  A    between atoms: _310  and  _312
REMARK  122  A    between atoms: _312  and  _313
REMARK  123  A    between atoms: _312  and  _315
REMARK  124  A    between atoms: _315  and  _316
REMARK  125  A    between atoms: _321  and  _323
REMARK  126  A    between atoms: _323  and  _324
REMARK  127  A    between atoms: _323  and  _326
REMARK  128  A    between atoms: _326  and  _327
REMARK  129  A    between atoms: _330  and  _332
REMARK  130  A    between atoms: _332  and  _333
REMARK  131  A    between atoms: _332  and  _335
REMARK  132  A    between atoms: _335  and  _336
REMARK  133  A    between atoms: _336  and  _337
REMARK  134  A    between atoms: _342  and  _344
REMARK  135  A    between atoms: _344  and  _345
REMARK  136  A    between atoms: _344  and  _347
REMARK  137  A    between atoms: _347  and  _348
REMARK  138  A    between atoms: _353  and  _354
REMARK  139  A    between atoms: _356  and  _358
REMARK  140  A    between atoms: _358  and  _359
REMARK  141  A    between atoms: _358  and  _361
REMARK  142  A    between atoms: _361  and  _362
REMARK  143  A    between atoms: _362  and  _363
REMARK  144  A    between atoms: _366  and  _368
REMARK  145  A    between atoms: _368  and  _369
REMARK  146  A    between atoms: _368  and  _371
REMARK  147  A    between atoms: _371  and  _372
REMARK  148  A    between atoms: _372  and  _373
REMARK  149  A    between atoms: _378  and  _380
REMARK  150  A    between atoms: _380  and  _381
REMARK  151  A    between atoms: _380  and  _383
REMARK  152  A    between atoms: _383  and  _384
REMARK  153  A    between atoms: _384  and  _385
REMARK  154  A    between atoms: _390  and  _392
REMARK  155  A    between atoms: _392  and  _393
REMARK  156  A    between atoms: _392  and  _395
REMARK  157  A    between atoms: _395  and  _396
REMARK  158  A    between atoms: _396  and  _397
REMARK  159  A    between atoms: _397  and  _398
REMARK  160  A    between atoms: _407  and  _409
REMARK  161  A    between atoms: _409  and  _410
REMARK  162  A    between atoms: _409  and  _412
REMARK  163  A    between atoms: _412  and  _413
REMARK  164  A    between atoms: _416  and  _418
REMARK  165  A    between atoms: _418  and  _419
REMARK  166  A    between atoms: _418  and  _421
REMARK  167  A    between atoms: _421  and  _422
REMARK  168  A    between atoms: _428  and  _430
REMARK  169  A    between atoms: _430  and  _431
REMARK  170  A    between atoms: _430  and  _433
REMARK  171  A    between atoms: _433  and  _434
REMARK  172  A    between atoms: _434  and  _435
REMARK  173  A    between atoms: _435  and  _436
REMARK  174  A    between atoms: _445  and  _447
REMARK  175  A    between atoms: _447  and  _448
REMARK  176  A    between atoms: _447  and  _450
REMARK  177  A    between atoms: _450  and  _451
REMARK  178  A    between atoms: _454  and  _456
REMARK  179  A    between atoms: _456  and  _457
REMARK  180  A    between atoms: _456  and  _459
REMARK  181  A    between atoms: _459  and  _460
REMARK  182  A    between atoms: _463  and  _464
REMARK  183  A    between atoms: _469  and  _471
REMARK  184  A    between atoms: _471  and  _472
REMARK  185  A    between atoms: _471  and  _474
REMARK  186  A    between atoms: _474  and  _475
REMARK  187  A    between atoms: _478  and  _480
REMARK  188  A    between atoms: _480  and  _481
REMARK  189  A    between atoms: _484  and  _486
REMARK  190  A    between atoms: _486  and  _487
REMARK  191  A    between atoms: _486  and  _489
REMARK  192  A    between atoms: _492  and  _494
REMARK  193  A    between atoms: _494  and  _495
REMARK  194  A    between atoms: _494  and  _497
REMARK  195  A    between atoms: _500  and  _502
REMARK  196  A    between atoms: _502  and  _503
REMARK  197  A    between atoms: _502  and  _505
REMARK  198  A    between atoms: _505  and  _506
REMARK  199  A    between atoms: _509  and  _511
REMARK  200  A    between atoms: _511  and  _512
REMARK  201  A    between atoms: _511  and  _514
REMARK  202  A    between atoms: _517  and  _519
REMARK  203  A    between atoms: _519  and  _520
REMARK  204  A    between atoms: _519  and  _522
REMARK  205  A    between atoms: _522  and  _523
REMARK  206  A    between atoms: _523  and  _524
REMARK  207  A    between atoms: _526  and  _528
REMARK  208  A    between atoms: _528  and  _529
REMARK  209  A    between atoms: _528  and  _531
REMARK  210  A    between atoms: _531  and  _532
REMARK  211  A    between atoms: _538  and  _540
REMARK  212  A    between atoms: _540  and  _541
REMARK  213  A    between atoms: _540  and  _543
REMARK  214  A    between atoms: _543  and  _544
REMARK  215  A    between atoms: _548  and  _549
REMARK  216  A    between atoms: _554  and  _556
REMARK  217  A    between atoms: _556  and  _557
REMARK  218  A    between atoms: _560  and  _562
REMARK  219  A    between atoms: _562  and  _563
REMARK  220  A    between atoms: _562  and  _565
REMARK  221  A    between atoms: _565  and  _566
REMARK                            x       y       z     vdW  Elec       q    Type
REMARK                         _______ _______ _______ _____ _____    ______ ____
ROOT
ATOM      1  O   HOH     1      -1.873  27.065  14.612  0.00  0.00    +0.000 OA
ENDROOT
TORSDOF 0
REMARK  Name = ../refined-set-2016/2bys/2bys_pocket.pdb
REMARK  221 active torsions:
REMARK  status: ('A' for Active; 'I' for Inactive)
REMARK    1  A    between atoms: _1  and  _3
REMARK    2  A    between atoms: _3  and  _4
REMARK    3  A    between atoms: _3  and  _6
REMARK    4  A    between atoms: _6  and  _7
REMARK    5  A    between atoms: _10  and  _12
REMARK    6  A    between atoms: _12  and  _13
REMARK    7  A    between atoms: _12  and  _15
REMARK    8  A    between atoms: _15  and  _16
REMARK    9  A    between atoms: _19  and  _21
REMARK   10  A    between atoms: _21  and  _22
REMARK   11  A    between atoms: _21  and  _24
REMARK   12  A    between atoms: _24  and  _25
REMARK   13  A    between atoms: _28  and  _30
REMARK   14  A    between atoms: _30  and  _31
REMARK   15  A    between atoms: _34  and  _36
REMARK   16  A    between atoms: _36  and  _37
REMARK   17  A    between atoms: _36  and  _39
REMARK   18  A    between atoms: _39  and  _40
REMARK   19  A    between atoms: _45  and  _46
REMARK   20  A    between atoms: _48  and  _50
REMARK   21  A    between atoms: _50  and  _51
REMARK   22  A    between atoms: _50  and  _53
REMARK   23  A    between atoms: _53  and  _54
REMARK   24  A    between atoms: _56  and  _58
REMARK   25  A    between atoms: _58  and  _59
REMARK   26  A    between atoms: _58  and  _61
REMARK   27  A    between atoms: _61  and  _62
REMARK   28  A    between atoms: _64  and  _66
REMARK   29  A    between atoms: _66  and  _67
REMARK   30  A    between atoms: _66  and  _69
REMARK   31  A    between atoms: _72  and  _74
REMARK   32  A    between atoms: _74  and  _75
REMARK   33  A    between atoms: _74  and  _77
REMARK   34  A    between atoms: _77  and  _78
REMARK   35  A    between atoms: _78  and  _79
REMARK   36  A    between atoms: _79  and  _80
REMARK   37  A    between atoms: _80  and  _81
REMARK   38  A    between atoms: _85  and  _87
REMARK   39  A    between atoms: _87  and  _88
REMARK   40  A    between atoms: _87  and  _90
REMARK   41  A    between atoms: _90  and  _91
REMARK   42  A    between atoms: _97  and  _99
REMARK   43  A    between atoms: _99  and  _100
REMARK   44  A    between atoms: _102  and  _104
REMARK   45  A    between atoms: _104  and  _105
REMARK   46  A    between atoms: _104  and  _107
REMARK   47  A    between atoms: _107  and  _108
REMARK   48  A    between atoms: _110  and  _112
REMARK   49  A    between atoms: _112  and  _113
REMARK   50  A    between atoms: _112  and  _115
REMARK   51  A    between atoms: _115  and  _116
REMARK   52  A    between atoms: _126  and  _128
REMARK   53  A    between atoms: _128  and  _129
REMARK   54  A    between atoms: _128  and  _131
REMARK   55  A    between atoms: _134  and  _136
REMARK   56  A    between atoms: _136  and  _137
REMARK   57  A    between atoms: _136  and  _139
REMARK   58  A    between atoms: _139  and  _140
REMARK   59  A    between atoms: _145  and  _146
REMARK   60  A    between atoms: _148  and  _150
REMARK   61  A    between atoms: _150  and  _151
REMARK   62  A    between atoms: _150  and  _153
REMARK   63  A    between atoms: _153  and  _154
REMARK   64  A    between atoms: _156  and  _158
REMARK   65  A    between atoms: _158  and  _159
REMARK   66  A    between atoms: _158  and  _161
REMARK   67  A    between atoms: _161  and  _162
REMARK   68  A    between atoms: _162  and  _163
REMARK   69  A    between atoms: _166  and  _168
REMARK   70  A    between atoms: _168  and  _169
REMARK   71  A    between atoms: _168  and  _171
REMARK   72  A    between atoms: _171  and  _172
REMARK   73  A    between atoms: _175  and  _177
REMARK   74  A    between atoms: _177  and  _178
REMARK   75  A    between atoms: _177  and  _180
REMARK   76  A    between atoms: _180  and  _181
REMARK   77  A    between atoms: _181  and  _182
REMARK   78  A    between atoms: _187  and  _189
REMARK   79  A    between atoms: _189  and  _190
REMARK   80  A    between atoms: _189  and  _192
REMARK   81  A    between atoms: _192  and  _193
REMARK   82  A    between atoms: _193  and  _194
REMARK   83  A    between atoms: _199  and  _201
REMARK   84  A    between atoms: _201  and  _202
REMARK   85  A    between atoms: _201  and  _204
REMARK   86  A    between atoms: _204  and  _205
REMARK   87  A    between atoms: _210  and  _212
REMARK   88  A    between atoms: _212  and  _213
REMARK   89  A    between atoms: _212  and  _215
REMARK   90  A    between atoms: _215  and  _216
REMARK   91  A    between atoms: _221  and  _222
REMARK   92  A    between atoms: _224  and  _226
REMARK   93  A    between atoms: _226  and  _227
REMARK   94  A    between atoms: _226  and  _229
REMARK   95  A    between atoms: _229  and  _230
REMARK   96  A    between atoms: _232  and  _234
REMARK   97  A    between atoms: _241  and  _242
REMARK   98  A    between atoms: _247  and  _248
REMARK   99  A    between atoms: _253  and  _255
REMARK  100  A    between atoms: _255  and  _256
REMARK  101  A    between atoms: _255  and  _258
REMARK  102  A    between atoms: _258  and  _259
REMARK  103  A    between atoms: _259  and  _260
REMARK  104  A    between atoms: _264  and  _265
REMARK  105  A    between atoms: _270  and  _272
REMARK  106  A    between atoms: _272  and  _273
REMARK  107  A    between atoms: _272  and  _275
REMARK  108  A    between atoms: _275  and  _276
REMARK  109  A    between atoms: _281  and  _282
REMARK  110  A    between atoms: _284  and  _286
REMARK  111  A    between atoms: _286  and  _287
REMARK  112  A    between atoms: _286  and  _289
REMARK  113  A    between atoms: _289  and  _290
REMARK  114  A    between atoms: _293  and  _295
REMARK  115  A    between atoms: _295  and  _296
REMARK  116  A    between atoms: _295  and  _298
REMARK  117  A    between atoms: _298  and  _299
REMARK  118  A    between atoms: _302  and  _304
REMARK  119  A    between atoms: _304  and  _305
REMARK  120  A    between atoms: _304  and  _307
REMARK  121  A    between atoms: _310  and  _312
REMARK  122  A    between atoms: _312  and  _313
REMARK  123  A    between atoms: _312  and  _315
REMARK  124  A    between atoms: _315  and  _316
REMARK  125  A    between atoms: _321  and  _323
REMARK  126  A    between atoms: _323  and  _324
REMARK  127  A    between atoms: _323  and  _326
REMARK  128  A    between atoms: _326  and  _327
REMARK  129  A    between atoms: _330  and  _332
REMARK  130  A    between atoms: _332  and  _333
REMARK  131  A    between atoms: _332  and  _335
REMARK  132  A    between atoms: _335  and  _336
REMARK  133  A    between atoms: _336  and  _337
REMARK  134  A    between atoms: _342  and  _344
REMARK  135  A    between atoms: _344  and  _345
REMARK  136  A    between atoms: _344  and  _347
REMARK  137  A    between atoms: _347  and  _348
REMARK  138  A    between atoms: _353  and  _354
REMARK  139  A    between atoms: _356  and  _358
REMARK  140  A    between atoms: _358  and  _359
REMARK  141  A    between atoms: _358  and  _361
REMARK  142  A    between atoms: _361  and  _362
REMARK  143  A    between atoms: _362  and  _363
REMARK  144  A    between atoms: _366  and  _368
REMARK  145  A    between atoms: _368  and  _369
REMARK  146  A    between atoms: _368  and  _371
REMARK  147  A    between atoms: _371  and  _372
REMARK  148  A    between atoms: _372  and  _373
REMARK  149  A    between atoms: _378  and  _380
REMARK  150  A    between atoms: _380  and  _381
REMARK  151  A    between atoms: _380  and  _383
REMARK  152  A    between atoms: _383  and  _384
REMARK  153  A    between atoms: _384  and  _385
REMARK  154  A    between atoms: _390  and  _392
REMARK  155  A    between atoms: _392  and  _393
REMARK  156  A    between atoms: _392  and  _395
REMARK  157  A    between atoms: _395  and  _396
REMARK  158  A    between atoms: _396  and  _397
REMARK  159  A    between atoms: _397  and  _398
REMARK  160  A    between atoms: _407  and  _409
REMARK  161  A    between atoms: _409  and  _410
REMARK  162  A    between atoms: _409  and  _412
REMARK  163  A    between atoms: _412  and  _413
REMARK  164  A    between atoms: _416  and  _418
REMARK  165  A    between atoms: _418  and  _419
REMARK  166  A    between atoms: _418  and  _421
REMARK  167  A    between atoms: _421  and  _422
REMARK  168  A    between atoms: _428  and  _430
REMARK  169  A    between atoms: _430  and  _431
REMARK  170  A    between atoms: _430  and  _433
REMARK  171  A    between atoms: _433  and  _434
REMARK  172  A    between atoms: _434  and  _435
REMARK  173  A    between atoms: _435  and  _436
REMARK  174  A    between atoms: _445  and  _447
REMARK  175  A    between atoms: _447  and  _448
REMARK  176  A    between atoms: _447  and  _450
REMARK  177  A    between atoms: _450  and  _451
REMARK  178  A    between atoms: _454  and  _456
REMARK  179  A    between atoms: _456  and  _457
REMARK  180  A    between atoms: _456  and  _459
REMARK  181  A    between atoms: _459  and  _460
REMARK  182  A    between atoms: _463  and  _464
REMARK  183  A    between atoms: _469  and  _471
REMARK  184  A    between atoms: _471  and  _472
REMARK  185  A    between atoms: _471  and  _474
REMARK  186  A    between atoms: _474  and  _475
REMARK  187  A    between atoms: _478  and  _480
REMARK  188  A    between atoms: _480  and  _481
REMARK  189  A    between atoms: _484  and  _486
REMARK  190  A    between atoms: _486  and  _487
REMARK  191  A    between atoms: _486  and  _489
REMARK  192  A    between atoms: _492  and  _494
REMARK  193  A    between atoms: _494  and  _495
REMARK  194  A    between atoms: _494  and  _497
REMARK  195  A    between atoms: _500  and  _502
REMARK  196  A    between atoms: _502  and  _503
REMARK  197  A    between atoms: _502  and  _505
REMARK  198  A    between atoms: _505  and  _506
REMARK  199  A    between atoms: _509  and  _511
REMARK  200  A    between atoms: _511  and  _512
REMARK  201  A    between atoms: _511  and  _514
REMARK  202  A    between atoms: _517  and  _519
REMARK  203  A    between atoms: _519  and  _520
REMARK  204  A    between atoms: _519  and  _522
REMARK  205  A    between atoms: _522  and  _523
REMARK  206  A    between atoms: _523  and  _524
REMARK  207  A    between atoms: _526  and  _528
REMARK  208  A    between atoms: _528  and  _529
REMARK  209  A    between atoms: _528  and  _531
REMARK  210  A    between atoms: _531  and  _532
REMARK  211  A    between atoms: _538  and  _540
REMARK  212  A    between atoms: _540  and  _541
REMARK  213  A    between atoms: _540  and  _543
REMARK  214  A    between atoms: _543  and  _544
REMARK  215  A    between atoms: _548  and  _549
REMARK  216  A    between atoms: _554  and  _556
REMARK  217  A    between atoms: _556  and  _557
REMARK  218  A    between atoms: _560  and  _562
REMARK  219  A    between atoms: _562  and  _563
REMARK  220  A    between atoms: _562  and  _565
REMARK  221  A    between atoms: _565  and  _566
REMARK                            x       y       z     vdW  Elec       q    Type
REMARK                         _______ _______ _______ _____ _____    ______ ____
ROOT
ATOM      1  O   HOH     1     -17.512  19.931   2.522  0.00  0.00    +0.000 OA
ENDROOT
TORSDOF 0
