REMARK  Name = ../refined-set-2016/4crc/4crc_pocket.pdb
REMARK  228 active torsions:
REMARK  status: ('A' for Active; 'I' for Inactive)
REMARK    1  A    between atoms: _1  and  _5
REMARK    2  A    between atoms: _5  and  _6
REMARK    3  A    between atoms: _5  and  _8
REMARK    4  A    between atoms: _8  and  _9
REMARK    5  A    between atoms: _12  and  _14
REMARK    6  A    between atoms: _14  and  _15
REMARK    7  A    between atoms: _14  and  _17
REMARK    8  A    between atoms: _20  and  _22
REMARK    9  A    between atoms: _22  and  _23
REMARK   10  A    between atoms: _22  and  _25
REMARK   11  A    between atoms: _25  and  _26
REMARK   12  A    between atoms: _26  and  _27
REMARK   13  A    between atoms: _27  and  _28
REMARK   14  A    between atoms: _37  and  _39
REMARK   15  A    between atoms: _39  and  _40
REMARK   16  A    between atoms: _39  and  _42
REMARK   17  A    between atoms: _42  and  _43
REMARK   18  A    between atoms: _48  and  _50
REMARK   19  A    between atoms: _50  and  _51
REMARK   20  A    between atoms: _50  and  _53
REMARK   21  A    between atoms: _53  and  _54
REMARK   22  A    between atoms: _57  and  _59
REMARK   23  A    between atoms: _59  and  _60
REMARK   24  A    between atoms: _59  and  _62
REMARK   25  A    between atoms: _62  and  _63
REMARK   26  A    between atoms: _63  and  _98
REMARK   27  A    between atoms: _64  and  _66
REMARK   28  A    between atoms: _66  and  _67
REMARK   29  A    between atoms: _69  and  _71
REMARK   30  A    between atoms: _71  and  _72
REMARK   31  A    between atoms: _75  and  _77
REMARK   32  A    between atoms: _77  and  _78
REMARK   33  A    between atoms: _81  and  _83
REMARK   34  A    between atoms: _83  and  _84
REMARK   35  A    between atoms: _83  and  _86
REMARK   36  A    between atoms: _86  and  _87
REMARK   37  A    between atoms: _92  and  _94
REMARK   38  A    between atoms: _94  and  _95
REMARK   39  A    between atoms: _94  and  _97
REMARK   40  A    between atoms: _97  and  _98
REMARK   41  A    between atoms: _99  and  _101
REMARK   42  A    between atoms: _101  and  _102
REMARK   43  A    between atoms: _101  and  _104
REMARK   44  A    between atoms: _104  and  _105
REMARK   45  A    between atoms: _111  and  _113
REMARK   46  A    between atoms: _113  and  _114
REMARK   47  A    between atoms: _113  and  _116
REMARK   48  A    between atoms: _116  and  _117
REMARK   49  A    between atoms: _122  and  _123
REMARK   50  A    between atoms: _125  and  _127
REMARK   51  A    between atoms: _127  and  _128
REMARK   52  A    between atoms: _130  and  _132
REMARK   53  A    between atoms: _132  and  _133
REMARK   54  A    between atoms: _132  and  _135
REMARK   55  A    between atoms: _138  and  _140
REMARK   56  A    between atoms: _140  and  _141
REMARK   57  A    between atoms: _140  and  _143
REMARK   58  A    between atoms: _143  and  _144
REMARK   59  A    between atoms: _149  and  _150
REMARK   60  A    between atoms: _152  and  _154
REMARK   61  A    between atoms: _154  and  _155
REMARK   62  A    between atoms: _158  and  _160
REMARK   63  A    between atoms: _160  and  _161
REMARK   64  A    between atoms: _160  and  _163
REMARK   65  A    between atoms: _163  and  _164
REMARK   66  A    between atoms: _164  and  _165
REMARK   67  A    between atoms: _168  and  _170
REMARK   68  A    between atoms: _170  and  _171
REMARK   69  A    between atoms: _170  and  _173
REMARK   70  A    between atoms: _173  and  _174
REMARK   71  A    between atoms: _177  and  _179
REMARK   72  A    between atoms: _179  and  _180
REMARK   73  A    between atoms: _179  and  _182
REMARK   74  A    between atoms: _185  and  _187
REMARK   75  A    between atoms: _187  and  _188
REMARK   76  A    between atoms: _187  and  _190
REMARK   77  A    between atoms: _190  and  _191
REMARK   78  A    between atoms: _201  and  _203
REMARK   79  A    between atoms: _203  and  _204
REMARK   80  A    between atoms: _206  and  _208
REMARK   81  A    between atoms: _208  and  _209
REMARK   82  A    between atoms: _208  and  _211
REMARK   83  A    between atoms: _211  and  _212
REMARK   84  A    between atoms: _217  and  _218
REMARK   85  A    between atoms: _220  and  _222
REMARK   86  A    between atoms: _222  and  _223
REMARK   87  A    between atoms: _222  and  _225
REMARK   88  A    between atoms: _225  and  _226
REMARK   89  A    between atoms: _226  and  _227
REMARK   90  A    between atoms: _227  and  _228
REMARK   91  A    between atoms: _228  and  _229
REMARK   92  A    between atoms: _233  and  _235
REMARK   93  A    between atoms: _235  and  _236
REMARK   94  A    between atoms: _235  and  _238
REMARK   95  A    between atoms: _238  and  _239
REMARK   96  A    between atoms: _242  and  _244
REMARK   97  A    between atoms: _244  and  _245
REMARK   98  A    between atoms: _244  and  _247
REMARK   99  A    between atoms: _247  and  _248
REMARK  100  A    between atoms: _248  and  _249
REMARK  101  A    between atoms: _249  and  _250
REMARK  102  A    between atoms: _259  and  _261
REMARK  103  A    between atoms: _261  and  _262
REMARK  104  A    between atoms: _261  and  _264
REMARK  105  A    between atoms: _264  and  _265
REMARK  106  A    between atoms: _268  and  _270
REMARK  107  A    between atoms: _270  and  _271
REMARK  108  A    between atoms: _270  and  _273
REMARK  109  A    between atoms: _273  and  _274
REMARK  110  A    between atoms: _274  and  _275
REMARK  111  A    between atoms: _275  and  _276
REMARK  112  A    between atoms: _276  and  _277
REMARK  113  A    between atoms: _281  and  _283
REMARK  114  A    between atoms: _283  and  _284
REMARK  115  A    between atoms: _283  and  _286
REMARK  116  A    between atoms: _286  and  _287
REMARK  117  A    between atoms: _290  and  _292
REMARK  118  A    between atoms: _292  and  _293
REMARK  119  A    between atoms: _292  and  _295
REMARK  120  A    between atoms: _295  and  _296
REMARK  121  A    between atoms: _296  and  _297
REMARK  122  A    between atoms: _302  and  _304
REMARK  123  A    between atoms: _304  and  _305
REMARK  124  A    between atoms: _304  and  _307
REMARK  125  A    between atoms: _307  and  _308
REMARK  126  A    between atoms: _311  and  _313
REMARK  127  A    between atoms: _313  and  _314
REMARK  128  A    between atoms: _313  and  _316
REMARK  129  A    between atoms: _316  and  _317
REMARK  130  A    between atoms: _322  and  _323
REMARK  131  A    between atoms: _325  and  _327
REMARK  132  A    between atoms: _327  and  _328
REMARK  133  A    between atoms: _327  and  _330
REMARK  134  A    between atoms: _330  and  _331
REMARK  135  A    between atoms: _334  and  _336
REMARK  136  A    between atoms: _336  and  _337
REMARK  137  A    between atoms: _336  and  _339
REMARK  138  A    between atoms: _341  and  _343
REMARK  139  A    between atoms: _343  and  _344
REMARK  140  A    between atoms: _347  and  _349
REMARK  141  A    between atoms: _349  and  _350
REMARK  142  A    between atoms: _349  and  _352
REMARK  143  A    between atoms: _352  and  _353
REMARK  144  A    between atoms: _356  and  _358
REMARK  145  A    between atoms: _358  and  _359
REMARK  146  A    between atoms: _362  and  _364
REMARK  147  A    between atoms: _364  and  _365
REMARK  148  A    between atoms: _364  and  _367
REMARK  149  A    between atoms: _367  and  _368
REMARK  150  A    between atoms: _368  and  _482
REMARK  151  A    between atoms: _369  and  _371
REMARK  152  A    between atoms: _371  and  _372
REMARK  153  A    between atoms: _371  and  _374
REMARK  154  A    between atoms: _374  and  _375
REMARK  155  A    between atoms: _375  and  _376
REMARK  156  A    between atoms: _376  and  _377
REMARK  157  A    between atoms: _377  and  _378
REMARK  158  A    between atoms: _382  and  _384
REMARK  159  A    between atoms: _384  and  _385
REMARK  160  A    between atoms: _387  and  _389
REMARK  161  A    between atoms: _389  and  _390
REMARK  162  A    between atoms: _389  and  _392
REMARK  163  A    between atoms: _392  and  _393
REMARK  164  A    between atoms: _396  and  _398
REMARK  165  A    between atoms: _398  and  _399
REMARK  166  A    between atoms: _398  and  _401
REMARK  167  A    between atoms: _401  and  _402
REMARK  168  A    between atoms: _404  and  _406
REMARK  169  A    between atoms: _406  and  _407
REMARK  170  A    between atoms: _409  and  _411
REMARK  171  A    between atoms: _411  and  _412
REMARK  172  A    between atoms: _414  and  _416
REMARK  173  A    between atoms: _416  and  _417
REMARK  174  A    between atoms: _416  and  _419
REMARK  175  A    between atoms: _419  and  _420
REMARK  176  A    between atoms: _423  and  _425
REMARK  177  A    between atoms: _425  and  _426
REMARK  178  A    between atoms: _425  and  _428
REMARK  179  A    between atoms: _428  and  _429
REMARK  180  A    between atoms: _432  and  _434
REMARK  181  A    between atoms: _434  and  _435
REMARK  182  A    between atoms: _434  and  _437
REMARK  183  A    between atoms: _437  and  _438
REMARK  184  A    between atoms: _440  and  _442
REMARK  185  A    between atoms: _442  and  _443
REMARK  186  A    between atoms: _442  and  _445
REMARK  187  A    between atoms: _445  and  _446
REMARK  188  A    between atoms: _456  and  _458
REMARK  189  A    between atoms: _458  and  _459
REMARK  190  A    between atoms: _461  and  _463
REMARK  191  A    between atoms: _463  and  _464
REMARK  192  A    between atoms: _463  and  _466
REMARK  193  A    between atoms: _466  and  _467
REMARK  194  A    between atoms: _467  and  _468
REMARK  195  A    between atoms: _471  and  _473
REMARK  196  A    between atoms: _473  and  _474
REMARK  197  A    between atoms: _476  and  _478
REMARK  198  A    between atoms: _478  and  _479
REMARK  199  A    between atoms: _478  and  _481
REMARK  200  A    between atoms: _481  and  _482
REMARK  201  A    between atoms: _483  and  _485
REMARK  202  A    between atoms: _485  and  _486
REMARK  203  A    between atoms: _489  and  _491
REMARK  204  A    between atoms: _491  and  _492
REMARK  205  A    between atoms: _491  and  _494
REMARK  206  A    between atoms: _494  and  _495
REMARK  207  A    between atoms: _495  and  _496
REMARK  208  A    between atoms: _501  and  _503
REMARK  209  A    between atoms: _503  and  _504
REMARK  210  A    between atoms: _503  and  _506
REMARK  211  A    between atoms: _506  and  _507
REMARK  212  A    between atoms: _507  and  _508
REMARK  213  A    between atoms: _508  and  _509
REMARK  214  A    between atoms: _519  and  _520
REMARK  215  A    between atoms: _525  and  _527
REMARK  216  A    between atoms: _527  and  _528
REMARK  217  A    between atoms: _530  and  _532
REMARK  218  A    between atoms: _532  and  _533
REMARK  219  A    between atoms: _532  and  _535
REMARK  220  A    between atoms: _538  and  _540
REMARK  221  A    between atoms: _540  and  _541
REMARK  222  A    between atoms: _540  and  _543
REMARK  223  A    between atoms: _543  and  _544
REMARK  224  A    between atoms: _549  and  _550
REMARK  225  A    between atoms: _552  and  _554
REMARK  226  A    between atoms: _554  and  _555
REMARK  227  A    between atoms: _554  and  _557
REMARK  228  A    between atoms: _557  and  _558
REMARK                            x       y       z     vdW  Elec       q    Type
REMARK                         _______ _______ _______ _____ _____    ______ ____
ROOT
ATOM      1  C   ILE A   1     -46.927  -0.648 -18.654  0.00  0.00    +0.202 C 
ATOM      2  N   VAL A   2     -46.826  -1.260 -17.476  0.00  0.00    -0.301 N 
ATOM      3  H   VAL A   2     -46.410  -2.212 -17.435  0.00  0.00    +0.150 HD
ATOM      4  O   ILE A   1     -47.453   0.457 -18.792  0.00  0.00    -0.277 OA
ENDROOT
BRANCH   1   5
ATOM      5  CA  ILE A   1     -46.364  -1.389 -19.867  0.00  0.00    +0.013 C 
BRANCH   5   6
ATOM      6  N   ILE A   1     -47.457  -1.605 -20.856  0.00  0.00    +0.387 N 
ATOM      7  H1  ILE A   1     -48.212  -2.171 -20.419  0.00  0.00    -0.089 HD
ATOM      8  H2  ILE A   1     -47.840  -0.685 -21.154  0.00  0.00    -0.089 HD
ATOM      9  H3  ILE A   1     -47.079  -2.109 -21.684  0.00  0.00    -0.089 HD
ENDBRANCH   5   6
BRANCH   5  10
ATOM     10  CB  ILE A   1     -45.186  -0.577 -20.466  0.00  0.00    -0.011 C 
ATOM     11  CG2 ILE A   1     -44.104  -0.364 -19.413  0.00  0.00    -0.002 C 
BRANCH  10  12
ATOM     12  CG1 ILE A   1     -44.602  -1.255 -21.721  0.00  0.00    -0.002 C 
ATOM     13  CD1 ILE A   1     -43.898  -2.583 -21.487  0.00  0.00    -0.000 C 
ENDBRANCH  10  12
ENDBRANCH   5  10
ENDBRANCH   1   5
BRANCH   2  14
ATOM     14  CA  VAL A   2     -47.284  -0.630 -16.235  0.00  0.00    +0.137 C 
BRANCH  14  15
ATOM     15  CB  VAL A   2     -47.823  -1.659 -15.215  0.00  0.00    +0.026 C 
ATOM     16  CG2 VAL A   2     -48.328  -0.953 -13.962  0.00  0.00    +0.002 C 
ATOM     17  CG1 VAL A   2     -48.918  -2.522 -15.832  0.00  0.00    +0.002 C 
ENDBRANCH  14  15
BRANCH  14  18
ATOM     18  C   VAL A   2     -46.112   0.125 -15.610  0.00  0.00    +0.227 C 
ATOM     19  O   VAL A   2     -44.988  -0.373 -15.580  0.00  0.00    -0.286 OA
ENDBRANCH  14  18
ENDBRANCH   2  14
TORSDOF 7
REMARK  Name = ../refined-set-2016/4crc/4crc_pocket.pdb
REMARK  228 active torsions:
REMARK  status: ('A' for Active; 'I' for Inactive)
REMARK    1  A    between atoms: _1  and  _5
REMARK    2  A    between atoms: _5  and  _6
REMARK    3  A    between atoms: _5  and  _8
REMARK    4  A    between atoms: _8  and  _9
REMARK    5  A    between atoms: _12  and  _14
REMARK    6  A    between atoms: _14  and  _15
REMARK    7  A    between atoms: _14  and  _17
REMARK    8  A    between atoms: _20  and  _22
REMARK    9  A    between atoms: _22  and  _23
REMARK   10  A    between atoms: _22  and  _25
REMARK   11  A    between atoms: _25  and  _26
REMARK   12  A    between atoms: _26  and  _27
REMARK   13  A    between atoms: _27  and  _28
REMARK   14  A    between atoms: _37  and  _39
REMARK   15  A    between atoms: _39  and  _40
REMARK   16  A    between atoms: _39  and  _42
REMARK   17  A    between atoms: _42  and  _43
REMARK   18  A    between atoms: _48  and  _50
REMARK   19  A    between atoms: _50  and  _51
REMARK   20  A    between atoms: _50  and  _53
REMARK   21  A    between atoms: _53  and  _54
REMARK   22  A    between atoms: _57  and  _59
REMARK   23  A    between atoms: _59  and  _60
REMARK   24  A    between atoms: _59  and  _62
REMARK   25  A    between atoms: _62  and  _63
REMARK   26  A    between atoms: _63  and  _98
REMARK   27  A    between atoms: _64  and  _66
REMARK   28  A    between atoms: _66  and  _67
REMARK   29  A    between atoms: _69  and  _71
REMARK   30  A    between atoms: _71  and  _72
REMARK   31  A    between atoms: _75  and  _77
REMARK   32  A    between atoms: _77  and  _78
REMARK   33  A    between atoms: _81  and  _83
REMARK   34  A    between atoms: _83  and  _84
REMARK   35  A    between atoms: _83  and  _86
REMARK   36  A    between atoms: _86  and  _87
REMARK   37  A    between atoms: _92  and  _94
REMARK   38  A    between atoms: _94  and  _95
REMARK   39  A    between atoms: _94  and  _97
REMARK   40  A    between atoms: _97  and  _98
REMARK   41  A    between atoms: _99  and  _101
REMARK   42  A    between atoms: _101  and  _102
REMARK   43  A    between atoms: _101  and  _104
REMARK   44  A    between atoms: _104  and  _105
REMARK   45  A    between atoms: _111  and  _113
REMARK   46  A    between atoms: _113  and  _114
REMARK   47  A    between atoms: _113  and  _116
REMARK   48  A    between atoms: _116  and  _117
REMARK   49  A    between atoms: _122  and  _123
REMARK   50  A    between atoms: _125  and  _127
REMARK   51  A    between atoms: _127  and  _128
REMARK   52  A    between atoms: _130  and  _132
REMARK   53  A    between atoms: _132  and  _133
REMARK   54  A    between atoms: _132  and  _135
REMARK   55  A    between atoms: _138  and  _140
REMARK   56  A    between atoms: _140  and  _141
REMARK   57  A    between atoms: _140  and  _143
REMARK   58  A    between atoms: _143  and  _144
REMARK   59  A    between atoms: _149  and  _150
REMARK   60  A    between atoms: _152  and  _154
REMARK   61  A    between atoms: _154  and  _155
REMARK   62  A    between atoms: _158  and  _160
REMARK   63  A    between atoms: _160  and  _161
REMARK   64  A    between atoms: _160  and  _163
REMARK   65  A    between atoms: _163  and  _164
REMARK   66  A    between atoms: _164  and  _165
REMARK   67  A    between atoms: _168  and  _170
REMARK   68  A    between atoms: _170  and  _171
REMARK   69  A    between atoms: _170  and  _173
REMARK   70  A    between atoms: _173  and  _174
REMARK   71  A    between atoms: _177  and  _179
REMARK   72  A    between atoms: _179  and  _180
REMARK   73  A    between atoms: _179  and  _182
REMARK   74  A    between atoms: _185  and  _187
REMARK   75  A    between atoms: _187  and  _188
REMARK   76  A    between atoms: _187  and  _190
REMARK   77  A    between atoms: _190  and  _191
REMARK   78  A    between atoms: _201  and  _203
REMARK   79  A    between atoms: _203  and  _204
REMARK   80  A    between atoms: _206  and  _208
REMARK   81  A    between atoms: _208  and  _209
REMARK   82  A    between atoms: _208  and  _211
REMARK   83  A    between atoms: _211  and  _212
REMARK   84  A    between atoms: _217  and  _218
REMARK   85  A    between atoms: _220  and  _222
REMARK   86  A    between atoms: _222  and  _223
REMARK   87  A    between atoms: _222  and  _225
REMARK   88  A    between atoms: _225  and  _226
REMARK   89  A    between atoms: _226  and  _227
REMARK   90  A    between atoms: _227  and  _228
REMARK   91  A    between atoms: _228  and  _229
REMARK   92  A    between atoms: _233  and  _235
REMARK   93  A    between atoms: _235  and  _236
REMARK   94  A    between atoms: _235  and  _238
REMARK   95  A    between atoms: _238  and  _239
REMARK   96  A    between atoms: _242  and  _244
REMARK   97  A    between atoms: _244  and  _245
REMARK   98  A    between atoms: _244  and  _247
REMARK   99  A    between atoms: _247  and  _248
REMARK  100  A    between atoms: _248  and  _249
REMARK  101  A    between atoms: _249  and  _250
REMARK  102  A    between atoms: _259  and  _261
REMARK  103  A    between atoms: _261  and  _262
REMARK  104  A    between atoms: _261  and  _264
REMARK  105  A    between atoms: _264  and  _265
REMARK  106  A    between atoms: _268  and  _270
REMARK  107  A    between atoms: _270  and  _271
REMARK  108  A    between atoms: _270  and  _273
REMARK  109  A    between atoms: _273  and  _274
REMARK  110  A    between atoms: _274  and  _275
REMARK  111  A    between atoms: _275  and  _276
REMARK  112  A    between atoms: _276  and  _277
REMARK  113  A    between atoms: _281  and  _283
REMARK  114  A    between atoms: _283  and  _284
REMARK  115  A    between atoms: _283  and  _286
REMARK  116  A    between atoms: _286  and  _287
REMARK  117  A    between atoms: _290  and  _292
REMARK  118  A    between atoms: _292  and  _293
REMARK  119  A    between atoms: _292  and  _295
REMARK  120  A    between atoms: _295  and  _296
REMARK  121  A    between atoms: _296  and  _297
REMARK  122  A    between atoms: _302  and  _304
REMARK  123  A    between atoms: _304  and  _305
REMARK  124  A    between atoms: _304  and  _307
REMARK  125  A    between atoms: _307  and  _308
REMARK  126  A    between atoms: _311  and  _313
REMARK  127  A    between atoms: _313  and  _314
REMARK  128  A    between atoms: _313  and  _316
REMARK  129  A    between atoms: _316  and  _317
REMARK  130  A    between atoms: _322  and  _323
REMARK  131  A    between atoms: _325  and  _327
REMARK  132  A    between atoms: _327  and  _328
REMARK  133  A    between atoms: _327  and  _330
REMARK  134  A    between atoms: _330  and  _331
REMARK  135  A    between atoms: _334  and  _336
REMARK  136  A    between atoms: _336  and  _337
REMARK  137  A    between atoms: _336  and  _339
REMARK  138  A    between atoms: _341  and  _343
REMARK  139  A    between atoms: _343  and  _344
REMARK  140  A    between atoms: _347  and  _349
REMARK  141  A    between atoms: _349  and  _350
REMARK  142  A    between atoms: _349  and  _352
REMARK  143  A    between atoms: _352  and  _353
REMARK  144  A    between atoms: _356  and  _358
REMARK  145  A    between atoms: _358  and  _359
REMARK  146  A    between atoms: _362  and  _364
REMARK  147  A    between atoms: _364  and  _365
REMARK  148  A    between atoms: _364  and  _367
REMARK  149  A    between atoms: _367  and  _368
REMARK  150  A    between atoms: _368  and  _482
REMARK  151  A    between atoms: _369  and  _371
REMARK  152  A    between atoms: _371  and  _372
REMARK  153  A    between atoms: _371  and  _374
REMARK  154  A    between atoms: _374  and  _375
REMARK  155  A    between atoms: _375  and  _376
REMARK  156  A    between atoms: _376  and  _377
REMARK  157  A    between atoms: _377  and  _378
REMARK  158  A    between atoms: _382  and  _384
REMARK  159  A    between atoms: _384  and  _385
REMARK  160  A    between atoms: _387  and  _389
REMARK  161  A    between atoms: _389  and  _390
REMARK  162  A    between atoms: _389  and  _392
REMARK  163  A    between atoms: _392  and  _393
REMARK  164  A    between atoms: _396  and  _398
REMARK  165  A    between atoms: _398  and  _399
REMARK  166  A    between atoms: _398  and  _401
REMARK  167  A    between atoms: _401  and  _402
REMARK  168  A    between atoms: _404  and  _406
REMARK  169  A    between atoms: _406  and  _407
REMARK  170  A    between atoms: _409  and  _411
REMARK  171  A    between atoms: _411  and  _412
REMARK  172  A    between atoms: _414  and  _416
REMARK  173  A    between atoms: _416  and  _417
REMARK  174  A    between atoms: _416  and  _419
REMARK  175  A    between atoms: _419  and  _420
REMARK  176  A    between atoms: _423  and  _425
REMARK  177  A    between atoms: _425  and  _426
REMARK  178  A    between atoms: _425  and  _428
REMARK  179  A    between atoms: _428  and  _429
REMARK  180  A    between atoms: _432  and  _434
REMARK  181  A    between atoms: _434  and  _435
REMARK  182  A    between atoms: _434  and  _437
REMARK  183  A    between atoms: _437  and  _438
REMARK  184  A    between atoms: _440  and  _442
REMARK  185  A    between atoms: _442  and  _443
REMARK  186  A    between atoms: _442  and  _445
REMARK  187  A    between atoms: _445  and  _446
REMARK  188  A    between atoms: _456  and  _458
REMARK  189  A    between atoms: _458  and  _459
REMARK  190  A    between atoms: _461  and  _463
REMARK  191  A    between atoms: _463  and  _464
REMARK  192  A    between atoms: _463  and  _466
REMARK  193  A    between atoms: _466  and  _467
REMARK  194  A    between atoms: _467  and  _468
REMARK  195  A    between atoms: _471  and  _473
REMARK  196  A    between atoms: _473  and  _474
REMARK  197  A    between atoms: _476  and  _478
REMARK  198  A    between atoms: _478  and  _479
REMARK  199  A    between atoms: _478  and  _481
REMARK  200  A    between atoms: _481  and  _482
REMARK  201  A    between atoms: _483  and  _485
REMARK  202  A    between atoms: _485  and  _486
REMARK  203  A    between atoms: _489  and  _491
REMARK  204  A    between atoms: _491  and  _492
REMARK  205  A    between atoms: _491  and  _494
REMARK  206  A    between atoms: _494  and  _495
REMARK  207  A    between atoms: _495  and  _496
REMARK  208  A    between atoms: _501  and  _503
REMARK  209  A    between atoms: _503  and  _504
REMARK  210  A    between atoms: _503  and  _506
REMARK  211  A    between atoms: _506  and  _507
REMARK  212  A    between atoms: _507  and  _508
REMARK  213  A    between atoms: _508  and  _509
REMARK  214  A    between atoms: _519  and  _520
REMARK  215  A    between atoms: _525  and  _527
REMARK  216  A    between atoms: _527  and  _528
REMARK  217  A    between atoms: _530  and  _532
REMARK  218  A    between atoms: _532  and  _533
REMARK  219  A    between atoms: _532  and  _535
REMARK  220  A    between atoms: _538  and  _540
REMARK  221  A    between atoms: _540  and  _541
REMARK  222  A    between atoms: _540  and  _543
REMARK  223  A    between atoms: _543  and  _544
REMARK  224  A    between atoms: _549  and  _550
REMARK  225  A    between atoms: _552  and  _554
REMARK  226  A    between atoms: _554  and  _555
REMARK  227  A    between atoms: _554  and  _557
REMARK  228  A    between atoms: _557  and  _558
REMARK                            x       y       z     vdW  Elec       q    Type
REMARK                         _______ _______ _______ _____ _____    ______ ____
ROOT
ATOM      1  CA  CYS A   4     -49.464 -14.513 -30.513  0.00  0.00    +0.160 C 
ENDROOT
BRANCH   1   2
ATOM      2  N   CYS A   4     -48.769 -15.557 -29.769  0.00  0.00    -0.296 N 
ATOM      3  C   HIS A   3     -49.441 -16.472 -29.079  0.00  0.00    +0.241 C 
ATOM      4  O   HIS A   3     -50.675 -16.502 -29.036  0.00  0.00    -0.273 OA
ATOM      5  H   CYS A   4     -47.729 -15.586 -29.779  0.00  0.00    +0.150 HD
BRANCH   3   6
ATOM      6  CA  HIS A   3     -48.615 -17.512 -28.337  0.00  0.00    +0.155 C 
BRANCH   6   7
ATOM      7  N   HIS A   3     -47.224 -17.548 -28.802  0.00  0.00    -0.297 N 
ATOM      8  H   HIS A   3     -46.466 -17.200 -28.181  0.00  0.00    +0.150 HD
ATOM      9  C   ALA A   2     -46.921 -18.019 -30.006  0.00  0.00    +0.241 C 
ATOM     10  O   ALA A   2     -47.781 -18.318 -30.851  0.00  0.00    -0.273 OA
BRANCH   9  11
ATOM     11  CA  ALA A   2     -45.433 -18.164 -30.332  0.00  0.00    +0.149 C 
ATOM     12  CB  ALA A   2     -44.950 -19.551 -29.931  0.00  0.00    +0.031 C 
BRANCH  11  13
ATOM     13  N   ALA A   2     -44.596 -17.138 -29.688  0.00  0.00    -0.297 N 
ATOM     14  H   ALA A   2     -43.845 -17.447 -29.038  0.00  0.00    +0.150 HD
ATOM     15  C   ALA A   1     -44.755 -15.832 -29.899  0.00  0.00    +0.238 C 
ATOM     16  O   ALA A   1     -45.580 -15.365 -30.685  0.00  0.00    -0.274 OA
BRANCH  15  17
ATOM     17  CA  ALA A   1     -43.866 -14.904 -29.080  0.00  0.00    +0.145 C 
ATOM     18  CB  ALA A   1     -44.625 -14.376 -27.859  0.00  0.00    +0.028 C 
BRANCH  17  19
ATOM     19  N   ALA A   1     -43.393 -13.801 -29.912  0.00  0.00    -0.238 NA
ATOM     20  H   ALA A   1     -43.991 -12.957 -30.022  0.00  0.00    +0.142 HD
ENDBRANCH  17  19
ENDBRANCH  15  17
ENDBRANCH  11  13
ENDBRANCH   9  11
ENDBRANCH   6   7
BRANCH   6  21
ATOM     21  CB  HIS A   3     -48.681 -17.316 -26.824  0.00  0.00    +0.076 C 
BRANCH  21  22
ATOM     22  CG  HIS A   3     -48.392 -15.923 -26.369  0.00  0.00    +0.082 A 
ATOM     23  ND1 HIS A   3     -47.282 -15.605 -25.621  0.00  0.00    -0.227 NA
ATOM     24  CE1 HIS A   3     -47.291 -14.310 -25.353  0.00  0.00    +0.199 A 
ATOM     25  NE2 HIS A   3     -48.369 -13.780 -25.899  0.00  0.00    -0.221 NA
ATOM     26  CD2 HIS A   3     -49.081 -14.770 -26.530  0.00  0.00    +0.115 A 
ENDBRANCH  21  22
ENDBRANCH   6  21
ENDBRANCH   3   6
ENDBRANCH   1   2
BRANCH   1  27
ATOM     27  C   CYS A   4     -50.295 -15.049 -31.662  0.00  0.00    +0.242 C 
ATOM     28  N   GLY A   5     -50.027 -16.280 -32.074  0.00  0.00    -0.297 N 
ATOM     29  H   GLY A   5     -49.385 -16.881 -31.519  0.00  0.00    +0.150 HD
ATOM     30  O   CYS A   4     -51.169 -14.350 -32.171  0.00  0.00    -0.273 OA
BRANCH  28  31
ATOM     31  CA  GLY A   5     -50.619 -16.795 -33.288  0.00  0.00    +0.153 C 
BRANCH  31  32
ATOM     32  C   GLY A   5     -51.756 -17.764 -33.045  0.00  0.00    +0.241 C 
ATOM     33  N   TYR A   6     -52.367 -17.696 -31.863  0.00  0.00    -0.297 N 
ATOM     34  H   TYR A   6     -51.990 -17.077 -31.117  0.00  0.00    +0.150 HD
ATOM     35  O   GLY A   5     -52.110 -18.541 -33.940  0.00  0.00    -0.273 OA
BRANCH  33  36
ATOM     36  CA  TYR A   6     -53.562 -18.488 -31.617  0.00  0.00    +0.153 C 
BRANCH  36  37
ATOM     37  C   TYR A   6     -54.616 -18.147 -32.674  0.00  0.00    +0.241 C 
ATOM     38  O   TYR A   6     -54.922 -16.977 -32.897  0.00  0.00    -0.273 OA
ATOM     39  N   GLY A   7     -55.160 -19.172 -33.322  0.00  0.00    -0.295 N 
ATOM     40  H   GLY A   7     -54.812 -20.133 -33.132  0.00  0.00    +0.150 HD
BRANCH  39  41
ATOM     41  CA  GLY A   7     -56.232 -18.984 -34.293  0.00  0.00    +0.176 C 
BRANCH  41  42
ATOM     42  C   GLY A   7     -55.822 -18.419 -35.642  0.00  0.00    +0.243 C 
ATOM     43  N   VAL A   8     -54.546 -18.058 -35.795  0.00  0.00    -0.298 N 
ATOM     44  H   VAL A   8     -53.897 -18.157 -34.989  0.00  0.00    +0.150 HD
ATOM     45  O   GLY A   7     -56.658 -18.313 -36.537  0.00  0.00    -0.273 OA
BRANCH  43  46
ATOM     46  CA  VAL A   8     -54.028 -17.528 -37.056  0.00  0.00    +0.137 C 
BRANCH  46  47
ATOM     47  CB  VAL A   8     -52.772 -16.655 -36.829  0.00  0.00    +0.026 C 
ATOM     48  CG2 VAL A   8     -53.126 -15.425 -36.005  0.00  0.00    +0.002 C 
ATOM     49  CG1 VAL A   8     -52.145 -16.243 -38.154  0.00  0.00    +0.002 C 
ENDBRANCH  46  47
BRANCH  46  50
ATOM     50  C   VAL A   8     -53.718 -18.713 -37.963  0.00  0.00    +0.227 C 
ATOM     51  O   VAL A   8     -52.807 -19.495 -37.684  0.00  0.00    -0.286 OA
ENDBRANCH  46  50
ENDBRANCH  43  46
ENDBRANCH  41  42
ENDBRANCH  39  41
ENDBRANCH  36  37
BRANCH  36  52
ATOM     52  CB  TYR A   6     -54.171 -18.237 -30.234  0.00  0.00    +0.055 C 
BRANCH  52  53
ATOM     53  CG  TYR A   6     -55.588 -18.751 -30.209  0.00  0.00    -0.020 A 
ATOM     54  CD2 TYR A   6     -55.845 -20.107 -30.056  0.00  0.00    -0.001 A 
ATOM     55  CE2 TYR A   6     -57.139 -20.594 -30.087  0.00  0.00    +0.036 A 
ATOM     56  CZ  TYR A   6     -58.190 -19.720 -30.291  0.00  0.00    +0.134 A 
ATOM     57  CE1 TYR A   6     -57.957 -18.373 -30.470  0.00  0.00    +0.036 A 
ATOM     58  CD1 TYR A   6     -56.661 -17.896 -30.436  0.00  0.00    -0.001 A 
BRANCH  56  59
ATOM     59  OH  TYR A   6     -59.480 -20.192 -30.319  0.00  0.00    -0.506 OA
ATOM     60  HH  TYR A   6     -59.475 -21.172 -30.176  0.00  0.00    +0.292 HD
ENDBRANCH  56  59
ENDBRANCH  52  53
ENDBRANCH  36  52
ENDBRANCH  33  36
ENDBRANCH  31  32
BRANCH  31  61
ATOM     61  CB  GLY A   5     -49.507 -17.363 -34.156  0.00  0.00    +0.055 C 
BRANCH  61  62
ATOM     62  CG  GLY A   5     -48.456 -16.347 -34.442  0.00  0.00    -0.020 A 
ATOM     63  CD2 GLY A   5     -47.262 -16.328 -33.727  0.00  0.00    -0.004 A 
ATOM     64  CE2 GLY A   5     -46.313 -15.348 -33.965  0.00  0.00    -0.000 A 
ATOM     65  CZ  GLY A   5     -46.563 -14.358 -34.894  0.00  0.00    -0.000 A 
ATOM     66  CE1 GLY A   5     -47.763 -14.349 -35.590  0.00  0.00    -0.000 A 
ATOM     67  CD1 GLY A   5     -48.704 -15.334 -35.349  0.00  0.00    -0.004 A 
ENDBRANCH  61  62
ENDBRANCH  31  61
ENDBRANCH  28  31
ENDBRANCH   1  27
BRANCH   1  68
ATOM     68  CB  CYS A   4     -48.464 -13.514 -31.078  0.00  0.00    +0.098 C 
BRANCH  68  69
ATOM     69  SG  CYS A   4     -47.639 -12.560 -29.799  0.00  0.00    -0.080 S 
BRANCH  69  70
ATOM     70  SG  CYS A   4     -48.823 -10.940 -29.669  0.00  0.00    -0.080 S 
BRANCH  70  71
ATOM     71  CB  CYS A   4     -47.917  -9.704 -30.625  0.00  0.00    +0.098 C 
BRANCH  71  72
ATOM     72  CA  CYS A   4     -48.364  -8.257 -30.405  0.00  0.00    +0.160 C 
BRANCH  72  75
ATOM     73  C   HIS A   3     -50.775  -8.264 -30.830  0.00  0.00    +0.241 C 
ATOM     74  O   HIS A   3     -51.040  -8.733 -29.722  0.00  0.00    -0.273 OA
ATOM     75  N   CYS A   4     -49.541  -7.954 -31.216  0.00  0.00    -0.296 N 
ATOM     76  H   CYS A   4     -49.408  -7.477 -32.131  0.00  0.00    +0.150 HD
BRANCH  73  77
ATOM     77  CA  HIS A   3     -51.877  -8.034 -31.858  0.00  0.00    +0.149 C 
BRANCH  77  80
ATOM     78  C   ALA A   2     -52.688  -5.743 -32.127  0.00  0.00    +0.241 C 
ATOM     79  O   ALA A   2     -53.623  -5.909 -31.343  0.00  0.00    -0.273 OA
ATOM     80  N   HIS A   3     -51.804  -6.692 -32.413  0.00  0.00    -0.297 N 
ATOM     81  H   HIS A   3     -51.025  -6.465 -33.063  0.00  0.00    +0.150 HD
BRANCH  78  82
ATOM     82  CA  ALA A   2     -52.471  -4.398 -32.822  0.00  0.00    +0.155 C 
BRANCH  82  84
ATOM     83  C   ALA A   1     -54.360  -4.649 -34.355  0.00  0.00    +0.238 C 
ATOM     84  N   ALA A   2     -53.707  -3.932 -33.448  0.00  0.00    -0.297 N 
ATOM     85  H   ALA A   2     -54.089  -3.005 -33.173  0.00  0.00    +0.150 HD
ATOM     86  O   ALA A   1     -53.912  -5.671 -34.872  0.00  0.00    -0.274 OA
BRANCH  83  87
ATOM     87  CA  ALA A   1     -55.741  -4.129 -34.724  0.00  0.00    +0.145 C 
BRANCH  87  88
ATOM     88  N   ALA A   1     -56.110  -4.591 -36.051  0.00  0.00    -0.238 NA
ATOM     89  H   ALA A   1     -55.618  -5.414 -36.455  0.00  0.00    +0.142 HD
ENDBRANCH  87  88
BRANCH  87  90
ATOM     90  CB  ALA A   1     -56.758  -4.617 -33.691  0.00  0.00    +0.030 C 
BRANCH  90  91
ATOM     91  CG  ALA A   1     -56.932  -6.124 -33.669  0.00  0.00    +0.045 C 
BRANCH  91  92
ATOM     92  CD  ALA A   1     -57.750  -6.600 -32.479  0.00  0.00    +0.174 C 
BRANCH  92  93
ATOM     93  NE  ALA A   1     -57.700  -8.058 -32.366  0.00  0.00    -0.265 N 
ATOM     94  CZ  ALA A   1     -56.744  -8.756 -31.747  0.00  0.00    +0.342 C 
ATOM     95  NH2 ALA A   1     -55.719  -8.147 -31.148  0.00  0.00    -0.292 N 
ATOM     96 HH21 ALA A   1     -54.986  -8.710 -30.672  0.00  0.00    +0.255 HD
ATOM     97 HH22 ALA A   1     -55.653  -7.109 -31.157  0.00  0.00    +0.255 HD
ATOM     98  NH1 ALA A   1     -56.814 -10.085 -31.727  0.00  0.00    -0.292 N 
ATOM     99 HH11 ALA A   1     -56.075 -10.638 -31.248  0.00  0.00    +0.255 HD
ATOM    100 HH12 ALA A   1     -57.608 -10.571 -32.191  0.00  0.00    +0.255 HD
ATOM    101  HE  ALA A   1     -58.474  -8.596 -32.805  0.00  0.00    +0.259 HD
ENDBRANCH  92  93
ENDBRANCH  91  92
ENDBRANCH  90  91
ENDBRANCH  87  90
ENDBRANCH  83  87
ENDBRANCH  82  84
BRANCH  82 102
ATOM    102  CB  ALA A   2     -51.988  -3.346 -31.829  0.00  0.00    +0.076 C 
BRANCH 102 103
ATOM    103  CG  ALA A   2     -50.879  -3.808 -30.942  0.00  0.00    +0.082 A 
ATOM    104  CD2 ALA A   2     -50.904  -4.379 -29.716  0.00  0.00    +0.115 A 
ATOM    105  NE2 ALA A   2     -49.600  -4.611 -29.352  0.00  0.00    -0.221 NA
ATOM    106  CE1 ALA A   2     -48.804  -4.193 -30.319  0.00  0.00    +0.199 A 
ATOM    107  ND1 ALA A   2     -49.550  -3.701 -31.292  0.00  0.00    -0.227 NA
ENDBRANCH 102 103
ENDBRANCH  82 102
ENDBRANCH  78  82
ENDBRANCH  77  80
BRANCH  77 108
ATOM    108  CB  HIS A   3     -51.771  -9.076 -32.984  0.00  0.00    +0.029 C 
BRANCH 108 109
ATOM    109  CG  HIS A   3     -51.766 -10.561 -32.606  0.00  0.00    +0.002 C 
ATOM    110  CD2 HIS A   3     -53.070 -10.979 -31.941  0.00  0.00    +0.000 C 
ATOM    111  CD1 HIS A   3     -51.496 -11.423 -33.830  0.00  0.00    +0.000 C 
ENDBRANCH 108 109
ENDBRANCH  77 108
ENDBRANCH  73  77
ENDBRANCH  72  75
BRANCH  72 112
ATOM    112  C   CYS A   4     -47.218  -7.339 -30.777  0.00  0.00    +0.242 C 
ATOM    113  N   GLY A   5     -46.220  -7.283 -29.907  0.00  0.00    -0.296 N 
ATOM    114  H   GLY A   5     -46.357  -7.691 -28.960  0.00  0.00    +0.150 HD
ATOM    115  O   CYS A   4     -47.244  -6.692 -31.814  0.00  0.00    -0.273 OA
BRANCH 113 116
ATOM    116  CA  GLY A   5     -44.944  -6.673 -30.227  0.00  0.00    +0.163 C 
BRANCH 116 117
ATOM    117  C   GLY A   5     -44.048  -7.669 -30.940  0.00  0.00    +0.229 C 
ATOM    118  O   GLY A   5     -44.381  -8.851 -31.080  0.00  0.00    -0.286 OA
ENDBRANCH 116 117
ENDBRANCH 113 116
ENDBRANCH  72 112
ENDBRANCH  71  72
ENDBRANCH  70  71
ENDBRANCH  69  70
ENDBRANCH  68  69
ENDBRANCH   1  68
TORSDOF 47
REMARK  Name = ../refined-set-2016/4crc/4crc_pocket.pdb
REMARK  228 active torsions:
REMARK  status: ('A' for Active; 'I' for Inactive)
REMARK    1  A    between atoms: _1  and  _5
REMARK    2  A    between atoms: _5  and  _6
REMARK    3  A    between atoms: _5  and  _8
REMARK    4  A    between atoms: _8  and  _9
REMARK    5  A    between atoms: _12  and  _14
REMARK    6  A    between atoms: _14  and  _15
REMARK    7  A    between atoms: _14  and  _17
REMARK    8  A    between atoms: _20  and  _22
REMARK    9  A    between atoms: _22  and  _23
REMARK   10  A    between atoms: _22  and  _25
REMARK   11  A    between atoms: _25  and  _26
REMARK   12  A    between atoms: _26  and  _27
REMARK   13  A    between atoms: _27  and  _28
REMARK   14  A    between atoms: _37  and  _39
REMARK   15  A    between atoms: _39  and  _40
REMARK   16  A    between atoms: _39  and  _42
REMARK   17  A    between atoms: _42  and  _43
REMARK   18  A    between atoms: _48  and  _50
REMARK   19  A    between atoms: _50  and  _51
REMARK   20  A    between atoms: _50  and  _53
REMARK   21  A    between atoms: _53  and  _54
REMARK   22  A    between atoms: _57  and  _59
REMARK   23  A    between atoms: _59  and  _60
REMARK   24  A    between atoms: _59  and  _62
REMARK   25  A    between atoms: _62  and  _63
REMARK   26  A    between atoms: _63  and  _98
REMARK   27  A    between atoms: _64  and  _66
REMARK   28  A    between atoms: _66  and  _67
REMARK   29  A    between atoms: _69  and  _71
REMARK   30  A    between atoms: _71  and  _72
REMARK   31  A    between atoms: _75  and  _77
REMARK   32  A    between atoms: _77  and  _78
REMARK   33  A    between atoms: _81  and  _83
REMARK   34  A    between atoms: _83  and  _84
REMARK   35  A    between atoms: _83  and  _86
REMARK   36  A    between atoms: _86  and  _87
REMARK   37  A    between atoms: _92  and  _94
REMARK   38  A    between atoms: _94  and  _95
REMARK   39  A    between atoms: _94  and  _97
REMARK   40  A    between atoms: _97  and  _98
REMARK   41  A    between atoms: _99  and  _101
REMARK   42  A    between atoms: _101  and  _102
REMARK   43  A    between atoms: _101  and  _104
REMARK   44  A    between atoms: _104  and  _105
REMARK   45  A    between atoms: _111  and  _113
REMARK   46  A    between atoms: _113  and  _114
REMARK   47  A    between atoms: _113  and  _116
REMARK   48  A    between atoms: _116  and  _117
REMARK   49  A    between atoms: _122  and  _123
REMARK   50  A    between atoms: _125  and  _127
REMARK   51  A    between atoms: _127  and  _128
REMARK   52  A    between atoms: _130  and  _132
REMARK   53  A    between atoms: _132  and  _133
REMARK   54  A    between atoms: _132  and  _135
REMARK   55  A    between atoms: _138  and  _140
REMARK   56  A    between atoms: _140  and  _141
REMARK   57  A    between atoms: _140  and  _143
REMARK   58  A    between atoms: _143  and  _144
REMARK   59  A    between atoms: _149  and  _150
REMARK   60  A    between atoms: _152  and  _154
REMARK   61  A    between atoms: _154  and  _155
REMARK   62  A    between atoms: _158  and  _160
REMARK   63  A    between atoms: _160  and  _161
REMARK   64  A    between atoms: _160  and  _163
REMARK   65  A    between atoms: _163  and  _164
REMARK   66  A    between atoms: _164  and  _165
REMARK   67  A    between atoms: _168  and  _170
REMARK   68  A    between atoms: _170  and  _171
REMARK   69  A    between atoms: _170  and  _173
REMARK   70  A    between atoms: _173  and  _174
REMARK   71  A    between atoms: _177  and  _179
REMARK   72  A    between atoms: _179  and  _180
REMARK   73  A    between atoms: _179  and  _182
REMARK   74  A    between atoms: _185  and  _187
REMARK   75  A    between atoms: _187  and  _188
REMARK   76  A    between atoms: _187  and  _190
REMARK   77  A    between atoms: _190  and  _191
REMARK   78  A    between atoms: _201  and  _203
REMARK   79  A    between atoms: _203  and  _204
REMARK   80  A    between atoms: _206  and  _208
REMARK   81  A    between atoms: _208  and  _209
REMARK   82  A    between atoms: _208  and  _211
REMARK   83  A    between atoms: _211  and  _212
REMARK   84  A    between atoms: _217  and  _218
REMARK   85  A    between atoms: _220  and  _222
REMARK   86  A    between atoms: _222  and  _223
REMARK   87  A    between atoms: _222  and  _225
REMARK   88  A    between atoms: _225  and  _226
REMARK   89  A    between atoms: _226  and  _227
REMARK   90  A    between atoms: _227  and  _228
REMARK   91  A    between atoms: _228  and  _229
REMARK   92  A    between atoms: _233  and  _235
REMARK   93  A    between atoms: _235  and  _236
REMARK   94  A    between atoms: _235  and  _238
REMARK   95  A    between atoms: _238  and  _239
REMARK   96  A    between atoms: _242  and  _244
REMARK   97  A    between atoms: _244  and  _245
REMARK   98  A    between atoms: _244  and  _247
REMARK   99  A    between atoms: _247  and  _248
REMARK  100  A    between atoms: _248  and  _249
REMARK  101  A    between atoms: _249  and  _250
REMARK  102  A    between atoms: _259  and  _261
REMARK  103  A    between atoms: _261  and  _262
REMARK  104  A    between atoms: _261  and  _264
REMARK  105  A    between atoms: _264  and  _265
REMARK  106  A    between atoms: _268  and  _270
REMARK  107  A    between atoms: _270  and  _271
REMARK  108  A    between atoms: _270  and  _273
REMARK  109  A    between atoms: _273  and  _274
REMARK  110  A    between atoms: _274  and  _275
REMARK  111  A    between atoms: _275  and  _276
REMARK  112  A    between atoms: _276  and  _277
REMARK  113  A    between atoms: _281  and  _283
REMARK  114  A    between atoms: _283  and  _284
REMARK  115  A    between atoms: _283  and  _286
REMARK  116  A    between atoms: _286  and  _287
REMARK  117  A    between atoms: _290  and  _292
REMARK  118  A    between atoms: _292  and  _293
REMARK  119  A    between atoms: _292  and  _295
REMARK  120  A    between atoms: _295  and  _296
REMARK  121  A    between atoms: _296  and  _297
REMARK  122  A    between atoms: _302  and  _304
REMARK  123  A    between atoms: _304  and  _305
REMARK  124  A    between atoms: _304  and  _307
REMARK  125  A    between atoms: _307  and  _308
REMARK  126  A    between atoms: _311  and  _313
REMARK  127  A    between atoms: _313  and  _314
REMARK  128  A    between atoms: _313  and  _316
REMARK  129  A    between atoms: _316  and  _317
REMARK  130  A    between atoms: _322  and  _323
REMARK  131  A    between atoms: _325  and  _327
REMARK  132  A    between atoms: _327  and  _328
REMARK  133  A    between atoms: _327  and  _330
REMARK  134  A    between atoms: _330  and  _331
REMARK  135  A    between atoms: _334  and  _336
REMARK  136  A    between atoms: _336  and  _337
REMARK  137  A    between atoms: _336  and  _339
REMARK  138  A    between atoms: _341  and  _343
REMARK  139  A    between atoms: _343  and  _344
REMARK  140  A    between atoms: _347  and  _349
REMARK  141  A    between atoms: _349  and  _350
REMARK  142  A    between atoms: _349  and  _352
REMARK  143  A    between atoms: _352  and  _353
REMARK  144  A    between atoms: _356  and  _358
REMARK  145  A    between atoms: _358  and  _359
REMARK  146  A    between atoms: _362  and  _364
REMARK  147  A    between atoms: _364  and  _365
REMARK  148  A    between atoms: _364  and  _367
REMARK  149  A    between atoms: _367  and  _368
REMARK  150  A    between atoms: _368  and  _482
REMARK  151  A    between atoms: _369  and  _371
REMARK  152  A    between atoms: _371  and  _372
REMARK  153  A    between atoms: _371  and  _374
REMARK  154  A    between atoms: _374  and  _375
REMARK  155  A    between atoms: _375  and  _376
REMARK  156  A    between atoms: _376  and  _377
REMARK  157  A    between atoms: _377  and  _378
REMARK  158  A    between atoms: _382  and  _384
REMARK  159  A    between atoms: _384  and  _385
REMARK  160  A    between atoms: _387  and  _389
REMARK  161  A    between atoms: _389  and  _390
REMARK  162  A    between atoms: _389  and  _392
REMARK  163  A    between atoms: _392  and  _393
REMARK  164  A    between atoms: _396  and  _398
REMARK  165  A    between atoms: _398  and  _399
REMARK  166  A    between atoms: _398  and  _401
REMARK  167  A    between atoms: _401  and  _402
REMARK  168  A    between atoms: _404  and  _406
REMARK  169  A    between atoms: _406  and  _407
REMARK  170  A    between atoms: _409  and  _411
REMARK  171  A    between atoms: _411  and  _412
REMARK  172  A    between atoms: _414  and  _416
REMARK  173  A    between atoms: _416  and  _417
REMARK  174  A    between atoms: _416  and  _419
REMARK  175  A    between atoms: _419  and  _420
REMARK  176  A    between atoms: _423  and  _425
REMARK  177  A    between atoms: _425  and  _426
REMARK  178  A    between atoms: _425  and  _428
REMARK  179  A    between atoms: _428  and  _429
REMARK  180  A    between atoms: _432  and  _434
REMARK  181  A    between atoms: _434  and  _435
REMARK  182  A    between atoms: _434  and  _437
REMARK  183  A    between atoms: _437  and  _438
REMARK  184  A    between atoms: _440  and  _442
REMARK  185  A    between atoms: _442  and  _443
REMARK  186  A    between atoms: _442  and  _445
REMARK  187  A    between atoms: _445  and  _446
REMARK  188  A    between atoms: _456  and  _458
REMARK  189  A    between atoms: _458  and  _459
REMARK  190  A    between atoms: _461  and  _463
REMARK  191  A    between atoms: _463  and  _464
REMARK  192  A    between atoms: _463  and  _466
REMARK  193  A    between atoms: _466  and  _467
REMARK  194  A    between atoms: _467  and  _468
REMARK  195  A    between atoms: _471  and  _473
REMARK  196  A    between atoms: _473  and  _474
REMARK  197  A    between atoms: _476  and  _478
REMARK  198  A    between atoms: _478  and  _479
REMARK  199  A    between atoms: _478  and  _481
REMARK  200  A    between atoms: _481  and  _482
REMARK  201  A    between atoms: _483  and  _485
REMARK  202  A    between atoms: _485  and  _486
REMARK  203  A    between atoms: _489  and  _491
REMARK  204  A    between atoms: _491  and  _492
REMARK  205  A    between atoms: _491  and  _494
REMARK  206  A    between atoms: _494  and  _495
REMARK  207  A    between atoms: _495  and  _496
REMARK  208  A    between atoms: _501  and  _503
REMARK  209  A    between atoms: _503  and  _504
REMARK  210  A    between atoms: _503  and  _506
REMARK  211  A    between atoms: _506  and  _507
REMARK  212  A    between atoms: _507  and  _508
REMARK  213  A    between atoms: _508  and  _509
REMARK  214  A    between atoms: _519  and  _520
REMARK  215  A    between atoms: _525  and  _527
REMARK  216  A    between atoms: _527  and  _528
REMARK  217  A    between atoms: _530  and  _532
REMARK  218  A    between atoms: _532  and  _533
REMARK  219  A    between atoms: _532  and  _535
REMARK  220  A    between atoms: _538  and  _540
REMARK  221  A    between atoms: _540  and  _541
REMARK  222  A    between atoms: _540  and  _543
REMARK  223  A    between atoms: _543  and  _544
REMARK  224  A    between atoms: _549  and  _550
REMARK  225  A    between atoms: _552  and  _554
REMARK  226  A    between atoms: _554  and  _555
REMARK  227  A    between atoms: _554  and  _557
REMARK  228  A    between atoms: _557  and  _558
REMARK                            x       y       z     vdW  Elec       q    Type
REMARK                         _______ _______ _______ _____ _____    ______ ____
ROOT
ATOM      1  CG  TYR A   1     -45.645 -22.752 -28.371  0.00  0.00    -0.020 A 
ATOM      2  CD2 TYR A   1     -45.581 -22.001 -27.205  0.00  0.00    -0.001 A 
ATOM      3  CE2 TYR A   1     -46.652 -21.230 -26.784  0.00  0.00    +0.036 A 
ATOM      4  CZ  TYR A   1     -47.805 -21.216 -27.530  0.00  0.00    +0.134 A 
ATOM      5  CE1 TYR A   1     -47.903 -21.964 -28.685  0.00  0.00    +0.036 A 
ATOM      6  CD1 TYR A   1     -46.830 -22.721 -29.106  0.00  0.00    -0.001 A 
ENDROOT
BRANCH   4   7
ATOM      7  OH  TYR A   1     -48.875 -20.457 -27.111  0.00  0.00    -0.506 OA
ATOM      8  HH  TYR A   1     -48.637 -19.988 -26.272  0.00  0.00    +0.292 HD
ENDBRANCH   4   7
BRANCH   1   9
ATOM      9  CB  TYR A   1     -44.487 -23.618 -28.802  0.00  0.00    +0.051 C 
BRANCH   9  10
ATOM     10  CA  TYR A   1     -44.421 -24.931 -27.999  0.00  0.00    +0.137 C 
BRANCH  10  11
ATOM     11  N   TYR A   1     -43.474 -25.877 -28.595  0.00  0.00    -0.239 NA
ATOM     12  H   TYR A   1     -43.069 -25.673 -29.531  0.00  0.00    +0.142 HD
ENDBRANCH  10  11
BRANCH  10  13
ATOM     13  C   TYR A   1     -45.837 -25.504 -27.890  0.00  0.00    +0.224 C 
ATOM     14  O   TYR A   1     -46.343 -26.113 -28.831  0.00  0.00    -0.287 OA
ENDBRANCH  10  13
ENDBRANCH   9  10
ENDBRANCH   1   9
TORSDOF 5
REMARK  Name = ../refined-set-2016/4crc/4crc_pocket.pdb
REMARK  228 active torsions:
REMARK  status: ('A' for Active; 'I' for Inactive)
REMARK    1  A    between atoms: _1  and  _5
REMARK    2  A    between atoms: _5  and  _6
REMARK    3  A    between atoms: _5  and  _8
REMARK    4  A    between atoms: _8  and  _9
REMARK    5  A    between atoms: _12  and  _14
REMARK    6  A    between atoms: _14  and  _15
REMARK    7  A    between atoms: _14  and  _17
REMARK    8  A    between atoms: _20  and  _22
REMARK    9  A    between atoms: _22  and  _23
REMARK   10  A    between atoms: _22  and  _25
REMARK   11  A    between atoms: _25  and  _26
REMARK   12  A    between atoms: _26  and  _27
REMARK   13  A    between atoms: _27  and  _28
REMARK   14  A    between atoms: _37  and  _39
REMARK   15  A    between atoms: _39  and  _40
REMARK   16  A    between atoms: _39  and  _42
REMARK   17  A    between atoms: _42  and  _43
REMARK   18  A    between atoms: _48  and  _50
REMARK   19  A    between atoms: _50  and  _51
REMARK   20  A    between atoms: _50  and  _53
REMARK   21  A    between atoms: _53  and  _54
REMARK   22  A    between atoms: _57  and  _59
REMARK   23  A    between atoms: _59  and  _60
REMARK   24  A    between atoms: _59  and  _62
REMARK   25  A    between atoms: _62  and  _63
REMARK   26  A    between atoms: _63  and  _98
REMARK   27  A    between atoms: _64  and  _66
REMARK   28  A    between atoms: _66  and  _67
REMARK   29  A    between atoms: _69  and  _71
REMARK   30  A    between atoms: _71  and  _72
REMARK   31  A    between atoms: _75  and  _77
REMARK   32  A    between atoms: _77  and  _78
REMARK   33  A    between atoms: _81  and  _83
REMARK   34  A    between atoms: _83  and  _84
REMARK   35  A    between atoms: _83  and  _86
REMARK   36  A    between atoms: _86  and  _87
REMARK   37  A    between atoms: _92  and  _94
REMARK   38  A    between atoms: _94  and  _95
REMARK   39  A    between atoms: _94  and  _97
REMARK   40  A    between atoms: _97  and  _98
REMARK   41  A    between atoms: _99  and  _101
REMARK   42  A    between atoms: _101  and  _102
REMARK   43  A    between atoms: _101  and  _104
REMARK   44  A    between atoms: _104  and  _105
REMARK   45  A    between atoms: _111  and  _113
REMARK   46  A    between atoms: _113  and  _114
REMARK   47  A    between atoms: _113  and  _116
REMARK   48  A    between atoms: _116  and  _117
REMARK   49  A    between atoms: _122  and  _123
REMARK   50  A    between atoms: _125  and  _127
REMARK   51  A    between atoms: _127  and  _128
REMARK   52  A    between atoms: _130  and  _132
REMARK   53  A    between atoms: _132  and  _133
REMARK   54  A    between atoms: _132  and  _135
REMARK   55  A    between atoms: _138  and  _140
REMARK   56  A    between atoms: _140  and  _141
REMARK   57  A    between atoms: _140  and  _143
REMARK   58  A    between atoms: _143  and  _144
REMARK   59  A    between atoms: _149  and  _150
REMARK   60  A    between atoms: _152  and  _154
REMARK   61  A    between atoms: _154  and  _155
REMARK   62  A    between atoms: _158  and  _160
REMARK   63  A    between atoms: _160  and  _161
REMARK   64  A    between atoms: _160  and  _163
REMARK   65  A    between atoms: _163  and  _164
REMARK   66  A    between atoms: _164  and  _165
REMARK   67  A    between atoms: _168  and  _170
REMARK   68  A    between atoms: _170  and  _171
REMARK   69  A    between atoms: _170  and  _173
REMARK   70  A    between atoms: _173  and  _174
REMARK   71  A    between atoms: _177  and  _179
REMARK   72  A    between atoms: _179  and  _180
REMARK   73  A    between atoms: _179  and  _182
REMARK   74  A    between atoms: _185  and  _187
REMARK   75  A    between atoms: _187  and  _188
REMARK   76  A    between atoms: _187  and  _190
REMARK   77  A    between atoms: _190  and  _191
REMARK   78  A    between atoms: _201  and  _203
REMARK   79  A    between atoms: _203  and  _204
REMARK   80  A    between atoms: _206  and  _208
REMARK   81  A    between atoms: _208  and  _209
REMARK   82  A    between atoms: _208  and  _211
REMARK   83  A    between atoms: _211  and  _212
REMARK   84  A    between atoms: _217  and  _218
REMARK   85  A    between atoms: _220  and  _222
REMARK   86  A    between atoms: _222  and  _223
REMARK   87  A    between atoms: _222  and  _225
REMARK   88  A    between atoms: _225  and  _226
REMARK   89  A    between atoms: _226  and  _227
REMARK   90  A    between atoms: _227  and  _228
REMARK   91  A    between atoms: _228  and  _229
REMARK   92  A    between atoms: _233  and  _235
REMARK   93  A    between atoms: _235  and  _236
REMARK   94  A    between atoms: _235  and  _238
REMARK   95  A    between atoms: _238  and  _239
REMARK   96  A    between atoms: _242  and  _244
REMARK   97  A    between atoms: _244  and  _245
REMARK   98  A    between atoms: _244  and  _247
REMARK   99  A    between atoms: _247  and  _248
REMARK  100  A    between atoms: _248  and  _249
REMARK  101  A    between atoms: _249  and  _250
REMARK  102  A    between atoms: _259  and  _261
REMARK  103  A    between atoms: _261  and  _262
REMARK  104  A    between atoms: _261  and  _264
REMARK  105  A    between atoms: _264  and  _265
REMARK  106  A    between atoms: _268  and  _270
REMARK  107  A    between atoms: _270  and  _271
REMARK  108  A    between atoms: _270  and  _273
REMARK  109  A    between atoms: _273  and  _274
REMARK  110  A    between atoms: _274  and  _275
REMARK  111  A    between atoms: _275  and  _276
REMARK  112  A    between atoms: _276  and  _277
REMARK  113  A    between atoms: _281  and  _283
REMARK  114  A    between atoms: _283  and  _284
REMARK  115  A    between atoms: _283  and  _286
REMARK  116  A    between atoms: _286  and  _287
REMARK  117  A    between atoms: _290  and  _292
REMARK  118  A    between atoms: _292  and  _293
REMARK  119  A    between atoms: _292  and  _295
REMARK  120  A    between atoms: _295  and  _296
REMARK  121  A    between atoms: _296  and  _297
REMARK  122  A    between atoms: _302  and  _304
REMARK  123  A    between atoms: _304  and  _305
REMARK  124  A    between atoms: _304  and  _307
REMARK  125  A    between atoms: _307  and  _308
REMARK  126  A    between atoms: _311  and  _313
REMARK  127  A    between atoms: _313  and  _314
REMARK  128  A    between atoms: _313  and  _316
REMARK  129  A    between atoms: _316  and  _317
REMARK  130  A    between atoms: _322  and  _323
REMARK  131  A    between atoms: _325  and  _327
REMARK  132  A    between atoms: _327  and  _328
REMARK  133  A    between atoms: _327  and  _330
REMARK  134  A    between atoms: _330  and  _331
REMARK  135  A    between atoms: _334  and  _336
REMARK  136  A    between atoms: _336  and  _337
REMARK  137  A    between atoms: _336  and  _339
REMARK  138  A    between atoms: _341  and  _343
REMARK  139  A    between atoms: _343  and  _344
REMARK  140  A    between atoms: _347  and  _349
REMARK  141  A    between atoms: _349  and  _350
REMARK  142  A    between atoms: _349  and  _352
REMARK  143  A    between atoms: _352  and  _353
REMARK  144  A    between atoms: _356  and  _358
REMARK  145  A    between atoms: _358  and  _359
REMARK  146  A    between atoms: _362  and  _364
REMARK  147  A    between atoms: _364  and  _365
REMARK  148  A    between atoms: _364  and  _367
REMARK  149  A    between atoms: _367  and  _368
REMARK  150  A    between atoms: _368  and  _482
REMARK  151  A    between atoms: _369  and  _371
REMARK  152  A    between atoms: _371  and  _372
REMARK  153  A    between atoms: _371  and  _374
REMARK  154  A    between atoms: _374  and  _375
REMARK  155  A    between atoms: _375  and  _376
REMARK  156  A    between atoms: _376  and  _377
REMARK  157  A    between atoms: _377  and  _378
REMARK  158  A    between atoms: _382  and  _384
REMARK  159  A    between atoms: _384  and  _385
REMARK  160  A    between atoms: _387  and  _389
REMARK  161  A    between atoms: _389  and  _390
REMARK  162  A    between atoms: _389  and  _392
REMARK  163  A    between atoms: _392  and  _393
REMARK  164  A    between atoms: _396  and  _398
REMARK  165  A    between atoms: _398  and  _399
REMARK  166  A    between atoms: _398  and  _401
REMARK  167  A    between atoms: _401  and  _402
REMARK  168  A    between atoms: _404  and  _406
REMARK  169  A    between atoms: _406  and  _407
REMARK  170  A    between atoms: _409  and  _411
REMARK  171  A    between atoms: _411  and  _412
REMARK  172  A    between atoms: _414  and  _416
REMARK  173  A    between atoms: _416  and  _417
REMARK  174  A    between atoms: _416  and  _419
REMARK  175  A    between atoms: _419  and  _420
REMARK  176  A    between atoms: _423  and  _425
REMARK  177  A    between atoms: _425  and  _426
REMARK  178  A    between atoms: _425  and  _428
REMARK  179  A    between atoms: _428  and  _429
REMARK  180  A    between atoms: _432  and  _434
REMARK  181  A    between atoms: _434  and  _435
REMARK  182  A    between atoms: _434  and  _437
REMARK  183  A    between atoms: _437  and  _438
REMARK  184  A    between atoms: _440  and  _442
REMARK  185  A    between atoms: _442  and  _443
REMARK  186  A    between atoms: _442  and  _445
REMARK  187  A    between atoms: _445  and  _446
REMARK  188  A    between atoms: _456  and  _458
REMARK  189  A    between atoms: _458  and  _459
REMARK  190  A    between atoms: _461  and  _463
REMARK  191  A    between atoms: _463  and  _464
REMARK  192  A    between atoms: _463  and  _466
REMARK  193  A    between atoms: _466  and  _467
REMARK  194  A    between atoms: _467  and  _468
REMARK  195  A    between atoms: _471  and  _473
REMARK  196  A    between atoms: _473  and  _474
REMARK  197  A    between atoms: _476  and  _478
REMARK  198  A    between atoms: _478  and  _479
REMARK  199  A    between atoms: _478  and  _481
REMARK  200  A    between atoms: _481  and  _482
REMARK  201  A    between atoms: _483  and  _485
REMARK  202  A    between atoms: _485  and  _486
REMARK  203  A    between atoms: _489  and  _491
REMARK  204  A    between atoms: _491  and  _492
REMARK  205  A    between atoms: _491  and  _494
REMARK  206  A    between atoms: _494  and  _495
REMARK  207  A    between atoms: _495  and  _496
REMARK  208  A    between atoms: _501  and  _503
REMARK  209  A    between atoms: _503  and  _504
REMARK  210  A    between atoms: _503  and  _506
REMARK  211  A    between atoms: _506  and  _507
REMARK  212  A    between atoms: _507  and  _508
REMARK  213  A    between atoms: _508  and  _509
REMARK  214  A    between atoms: _519  and  _520
REMARK  215  A    between atoms: _525  and  _527
REMARK  216  A    between atoms: _527  and  _528
REMARK  217  A    between atoms: _530  and  _532
REMARK  218  A    between atoms: _532  and  _533
REMARK  219  A    between atoms: _532  and  _535
REMARK  220  A    between atoms: _538  and  _540
REMARK  221  A    between atoms: _540  and  _541
REMARK  222  A    between atoms: _540  and  _543
REMARK  223  A    between atoms: _543  and  _544
REMARK  224  A    between atoms: _549  and  _550
REMARK  225  A    between atoms: _552  and  _554
REMARK  226  A    between atoms: _554  and  _555
REMARK  227  A    between atoms: _554  and  _557
REMARK  228  A    between atoms: _557  and  _558
REMARK                            x       y       z     vdW  Elec       q    Type
REMARK                         _______ _______ _______ _____ _____    ______ ____
ROOT
ATOM      1  C   ALA A   1     -46.345 -19.938 -21.732  0.00  0.00    +0.238 C 
ATOM      2  N   GLU A   2     -47.221 -20.337 -20.810  0.00  0.00    -0.298 N 
ATOM      3  H   GLU A   2     -48.217 -20.466 -21.079  0.00  0.00    +0.150 HD
ATOM      4  O   ALA A   1     -45.132 -19.909 -21.527  0.00  0.00    -0.274 OA
ENDROOT
BRANCH   1   5
ATOM      5  CA  ALA A   1     -46.901 -19.535 -23.097  0.00  0.00    +0.145 C 
ATOM      6  CB  ALA A   1     -47.486 -18.135 -23.032  0.00  0.00    +0.028 C 
BRANCH   5   7
ATOM      7  N   ALA A   1     -47.881 -20.472 -23.642  0.00  0.00    -0.238 NA
ATOM      8  H   ALA A   1     -48.788 -20.109 -23.999  0.00  0.00    +0.142 HD
ENDBRANCH   5   7
ENDBRANCH   1   5
BRANCH   2   9
ATOM      9  CA  GLU A   2     -46.815 -20.598 -19.428  0.00  0.00    +0.137 C 
BRANCH   9  10
ATOM     10  C   GLU A   2     -45.951 -21.849 -19.243  0.00  0.00    +0.227 C 
ATOM     11  O   GLU A   2     -45.349 -22.021 -18.183  0.00  0.00    -0.286 OA
ENDBRANCH   9  10
BRANCH   9  12
ATOM     12  CB  GLU A   2     -48.043 -20.637 -18.500  0.00  0.00    +0.039 C 
BRANCH  12  13
ATOM     13  CG  GLU A   2     -48.715 -19.280 -18.397  0.00  0.00    +0.116 C 
BRANCH  13  14
ATOM     14  CD  GLU A   2     -50.014 -19.271 -17.616  0.00  0.00    +0.365 C 
ATOM     15  OE2 GLU A   2     -50.151 -20.009 -16.620  0.00  0.00    -0.246 OA
ATOM     16  OE1 GLU A   2     -50.898 -18.482 -18.003  0.00  0.00    -0.246 OA
ENDBRANCH  13  14
ENDBRANCH  12  13
ENDBRANCH   9  12
ENDBRANCH   2   9
TORSDOF 7
REMARK  Name = ../refined-set-2016/4crc/4crc_pocket.pdb
REMARK  228 active torsions:
REMARK  status: ('A' for Active; 'I' for Inactive)
REMARK    1  A    between atoms: _1  and  _5
REMARK    2  A    between atoms: _5  and  _6
REMARK    3  A    between atoms: _5  and  _8
REMARK    4  A    between atoms: _8  and  _9
REMARK    5  A    between atoms: _12  and  _14
REMARK    6  A    between atoms: _14  and  _15
REMARK    7  A    between atoms: _14  and  _17
REMARK    8  A    between atoms: _20  and  _22
REMARK    9  A    between atoms: _22  and  _23
REMARK   10  A    between atoms: _22  and  _25
REMARK   11  A    between atoms: _25  and  _26
REMARK   12  A    between atoms: _26  and  _27
REMARK   13  A    between atoms: _27  and  _28
REMARK   14  A    between atoms: _37  and  _39
REMARK   15  A    between atoms: _39  and  _40
REMARK   16  A    between atoms: _39  and  _42
REMARK   17  A    between atoms: _42  and  _43
REMARK   18  A    between atoms: _48  and  _50
REMARK   19  A    between atoms: _50  and  _51
REMARK   20  A    between atoms: _50  and  _53
REMARK   21  A    between atoms: _53  and  _54
REMARK   22  A    between atoms: _57  and  _59
REMARK   23  A    between atoms: _59  and  _60
REMARK   24  A    between atoms: _59  and  _62
REMARK   25  A    between atoms: _62  and  _63
REMARK   26  A    between atoms: _63  and  _98
REMARK   27  A    between atoms: _64  and  _66
REMARK   28  A    between atoms: _66  and  _67
REMARK   29  A    between atoms: _69  and  _71
REMARK   30  A    between atoms: _71  and  _72
REMARK   31  A    between atoms: _75  and  _77
REMARK   32  A    between atoms: _77  and  _78
REMARK   33  A    between atoms: _81  and  _83
REMARK   34  A    between atoms: _83  and  _84
REMARK   35  A    between atoms: _83  and  _86
REMARK   36  A    between atoms: _86  and  _87
REMARK   37  A    between atoms: _92  and  _94
REMARK   38  A    between atoms: _94  and  _95
REMARK   39  A    between atoms: _94  and  _97
REMARK   40  A    between atoms: _97  and  _98
REMARK   41  A    between atoms: _99  and  _101
REMARK   42  A    between atoms: _101  and  _102
REMARK   43  A    between atoms: _101  and  _104
REMARK   44  A    between atoms: _104  and  _105
REMARK   45  A    between atoms: _111  and  _113
REMARK   46  A    between atoms: _113  and  _114
REMARK   47  A    between atoms: _113  and  _116
REMARK   48  A    between atoms: _116  and  _117
REMARK   49  A    between atoms: _122  and  _123
REMARK   50  A    between atoms: _125  and  _127
REMARK   51  A    between atoms: _127  and  _128
REMARK   52  A    between atoms: _130  and  _132
REMARK   53  A    between atoms: _132  and  _133
REMARK   54  A    between atoms: _132  and  _135
REMARK   55  A    between atoms: _138  and  _140
REMARK   56  A    between atoms: _140  and  _141
REMARK   57  A    between atoms: _140  and  _143
REMARK   58  A    between atoms: _143  and  _144
REMARK   59  A    between atoms: _149  and  _150
REMARK   60  A    between atoms: _152  and  _154
REMARK   61  A    between atoms: _154  and  _155
REMARK   62  A    between atoms: _158  and  _160
REMARK   63  A    between atoms: _160  and  _161
REMARK   64  A    between atoms: _160  and  _163
REMARK   65  A    between atoms: _163  and  _164
REMARK   66  A    between atoms: _164  and  _165
REMARK   67  A    between atoms: _168  and  _170
REMARK   68  A    between atoms: _170  and  _171
REMARK   69  A    between atoms: _170  and  _173
REMARK   70  A    between atoms: _173  and  _174
REMARK   71  A    between atoms: _177  and  _179
REMARK   72  A    between atoms: _179  and  _180
REMARK   73  A    between atoms: _179  and  _182
REMARK   74  A    between atoms: _185  and  _187
REMARK   75  A    between atoms: _187  and  _188
REMARK   76  A    between atoms: _187  and  _190
REMARK   77  A    between atoms: _190  and  _191
REMARK   78  A    between atoms: _201  and  _203
REMARK   79  A    between atoms: _203  and  _204
REMARK   80  A    between atoms: _206  and  _208
REMARK   81  A    between atoms: _208  and  _209
REMARK   82  A    between atoms: _208  and  _211
REMARK   83  A    between atoms: _211  and  _212
REMARK   84  A    between atoms: _217  and  _218
REMARK   85  A    between atoms: _220  and  _222
REMARK   86  A    between atoms: _222  and  _223
REMARK   87  A    between atoms: _222  and  _225
REMARK   88  A    between atoms: _225  and  _226
REMARK   89  A    between atoms: _226  and  _227
REMARK   90  A    between atoms: _227  and  _228
REMARK   91  A    between atoms: _228  and  _229
REMARK   92  A    between atoms: _233  and  _235
REMARK   93  A    between atoms: _235  and  _236
REMARK   94  A    between atoms: _235  and  _238
REMARK   95  A    between atoms: _238  and  _239
REMARK   96  A    between atoms: _242  and  _244
REMARK   97  A    between atoms: _244  and  _245
REMARK   98  A    between atoms: _244  and  _247
REMARK   99  A    between atoms: _247  and  _248
REMARK  100  A    between atoms: _248  and  _249
REMARK  101  A    between atoms: _249  and  _250
REMARK  102  A    between atoms: _259  and  _261
REMARK  103  A    between atoms: _261  and  _262
REMARK  104  A    between atoms: _261  and  _264
REMARK  105  A    between atoms: _264  and  _265
REMARK  106  A    between atoms: _268  and  _270
REMARK  107  A    between atoms: _270  and  _271
REMARK  108  A    between atoms: _270  and  _273
REMARK  109  A    between atoms: _273  and  _274
REMARK  110  A    between atoms: _274  and  _275
REMARK  111  A    between atoms: _275  and  _276
REMARK  112  A    between atoms: _276  and  _277
REMARK  113  A    between atoms: _281  and  _283
REMARK  114  A    between atoms: _283  and  _284
REMARK  115  A    between atoms: _283  and  _286
REMARK  116  A    between atoms: _286  and  _287
REMARK  117  A    between atoms: _290  and  _292
REMARK  118  A    between atoms: _292  and  _293
REMARK  119  A    between atoms: _292  and  _295
REMARK  120  A    between atoms: _295  and  _296
REMARK  121  A    between atoms: _296  and  _297
REMARK  122  A    between atoms: _302  and  _304
REMARK  123  A    between atoms: _304  and  _305
REMARK  124  A    between atoms: _304  and  _307
REMARK  125  A    between atoms: _307  and  _308
REMARK  126  A    between atoms: _311  and  _313
REMARK  127  A    between atoms: _313  and  _314
REMARK  128  A    between atoms: _313  and  _316
REMARK  129  A    between atoms: _316  and  _317
REMARK  130  A    between atoms: _322  and  _323
REMARK  131  A    between atoms: _325  and  _327
REMARK  132  A    between atoms: _327  and  _328
REMARK  133  A    between atoms: _327  and  _330
REMARK  134  A    between atoms: _330  and  _331
REMARK  135  A    between atoms: _334  and  _336
REMARK  136  A    between atoms: _336  and  _337
REMARK  137  A    between atoms: _336  and  _339
REMARK  138  A    between atoms: _341  and  _343
REMARK  139  A    between atoms: _343  and  _344
REMARK  140  A    between atoms: _347  and  _349
REMARK  141  A    between atoms: _349  and  _350
REMARK  142  A    between atoms: _349  and  _352
REMARK  143  A    between atoms: _352  and  _353
REMARK  144  A    between atoms: _356  and  _358
REMARK  145  A    between atoms: _358  and  _359
REMARK  146  A    between atoms: _362  and  _364
REMARK  147  A    between atoms: _364  and  _365
REMARK  148  A    between atoms: _364  and  _367
REMARK  149  A    between atoms: _367  and  _368
REMARK  150  A    between atoms: _368  and  _482
REMARK  151  A    between atoms: _369  and  _371
REMARK  152  A    between atoms: _371  and  _372
REMARK  153  A    between atoms: _371  and  _374
REMARK  154  A    between atoms: _374  and  _375
REMARK  155  A    between atoms: _375  and  _376
REMARK  156  A    between atoms: _376  and  _377
REMARK  157  A    between atoms: _377  and  _378
REMARK  158  A    between atoms: _382  and  _384
REMARK  159  A    between atoms: _384  and  _385
REMARK  160  A    between atoms: _387  and  _389
REMARK  161  A    between atoms: _389  and  _390
REMARK  162  A    between atoms: _389  and  _392
REMARK  163  A    between atoms: _392  and  _393
REMARK  164  A    between atoms: _396  and  _398
REMARK  165  A    between atoms: _398  and  _399
REMARK  166  A    between atoms: _398  and  _401
REMARK  167  A    between atoms: _401  and  _402
REMARK  168  A    between atoms: _404  and  _406
REMARK  169  A    between atoms: _406  and  _407
REMARK  170  A    between atoms: _409  and  _411
REMARK  171  A    between atoms: _411  and  _412
REMARK  172  A    between atoms: _414  and  _416
REMARK  173  A    between atoms: _416  and  _417
REMARK  174  A    between atoms: _416  and  _419
REMARK  175  A    between atoms: _419  and  _420
REMARK  176  A    between atoms: _423  and  _425
REMARK  177  A    between atoms: _425  and  _426
REMARK  178  A    between atoms: _425  and  _428
REMARK  179  A    between atoms: _428  and  _429
REMARK  180  A    between atoms: _432  and  _434
REMARK  181  A    between atoms: _434  and  _435
REMARK  182  A    between atoms: _434  and  _437
REMARK  183  A    between atoms: _437  and  _438
REMARK  184  A    between atoms: _440  and  _442
REMARK  185  A    between atoms: _442  and  _443
REMARK  186  A    between atoms: _442  and  _445
REMARK  187  A    between atoms: _445  and  _446
REMARK  188  A    between atoms: _456  and  _458
REMARK  189  A    between atoms: _458  and  _459
REMARK  190  A    between atoms: _461  and  _463
REMARK  191  A    between atoms: _463  and  _464
REMARK  192  A    between atoms: _463  and  _466
REMARK  193  A    between atoms: _466  and  _467
REMARK  194  A    between atoms: _467  and  _468
REMARK  195  A    between atoms: _471  and  _473
REMARK  196  A    between atoms: _473  and  _474
REMARK  197  A    between atoms: _476  and  _478
REMARK  198  A    between atoms: _478  and  _479
REMARK  199  A    between atoms: _478  and  _481
REMARK  200  A    between atoms: _481  and  _482
REMARK  201  A    between atoms: _483  and  _485
REMARK  202  A    between atoms: _485  and  _486
REMARK  203  A    between atoms: _489  and  _491
REMARK  204  A    between atoms: _491  and  _492
REMARK  205  A    between atoms: _491  and  _494
REMARK  206  A    between atoms: _494  and  _495
REMARK  207  A    between atoms: _495  and  _496
REMARK  208  A    between atoms: _501  and  _503
REMARK  209  A    between atoms: _503  and  _504
REMARK  210  A    between atoms: _503  and  _506
REMARK  211  A    between atoms: _506  and  _507
REMARK  212  A    between atoms: _507  and  _508
REMARK  213  A    between atoms: _508  and  _509
REMARK  214  A    between atoms: _519  and  _520
REMARK  215  A    between atoms: _525  and  _527
REMARK  216  A    between atoms: _527  and  _528
REMARK  217  A    between atoms: _530  and  _532
REMARK  218  A    between atoms: _532  and  _533
REMARK  219  A    between atoms: _532  and  _535
REMARK  220  A    between atoms: _538  and  _540
REMARK  221  A    between atoms: _540  and  _541
REMARK  222  A    between atoms: _540  and  _543
REMARK  223  A    between atoms: _543  and  _544
REMARK  224  A    between atoms: _549  and  _550
REMARK  225  A    between atoms: _552  and  _554
REMARK  226  A    between atoms: _554  and  _555
REMARK  227  A    between atoms: _554  and  _557
REMARK  228  A    between atoms: _557  and  _558
REMARK                            x       y       z     vdW  Elec       q    Type
REMARK                         _______ _______ _______ _____ _____    ______ ____
ROOT
ATOM      1  CA  ASP A   1     -42.714 -19.312 -26.371  0.00  0.00    +0.144 C 
ENDROOT
BRANCH   1   2
ATOM      2  N   ASP A   1     -41.843 -20.359 -25.856  0.00  0.00    -0.239 NA
ATOM      3  H   ASP A   1     -41.392 -20.236 -24.927  0.00  0.00    +0.142 HD
ENDBRANCH   1   2
BRANCH   1   4
ATOM      4  C   ASP A   1     -41.917 -18.383 -27.272  0.00  0.00    +0.225 C 
ATOM      5  O   ASP A   1     -41.539 -17.287 -26.878  0.00  0.00    -0.287 OA
ENDBRANCH   1   4
BRANCH   1   6
ATOM      6  CB  ASP A   1     -43.373 -18.539 -25.231  0.00  0.00    +0.139 C 
BRANCH   6   7
ATOM      7  CG  ASP A   1     -44.527 -17.672 -25.704  0.00  0.00    +0.367 C 
ATOM      8  OD2 ASP A   1     -45.041 -16.872 -24.893  0.00  0.00    -0.246 OA
ATOM      9  OD1 ASP A   1     -44.933 -17.792 -26.878  0.00  0.00    -0.246 OA
ENDBRANCH   6   7
ENDBRANCH   1   6
TORSDOF 4
REMARK  Name = ../refined-set-2016/4crc/4crc_pocket.pdb
REMARK  228 active torsions:
REMARK  status: ('A' for Active; 'I' for Inactive)
REMARK    1  A    between atoms: _1  and  _5
REMARK    2  A    between atoms: _5  and  _6
REMARK    3  A    between atoms: _5  and  _8
REMARK    4  A    between atoms: _8  and  _9
REMARK    5  A    between atoms: _12  and  _14
REMARK    6  A    between atoms: _14  and  _15
REMARK    7  A    between atoms: _14  and  _17
REMARK    8  A    between atoms: _20  and  _22
REMARK    9  A    between atoms: _22  and  _23
REMARK   10  A    between atoms: _22  and  _25
REMARK   11  A    between atoms: _25  and  _26
REMARK   12  A    between atoms: _26  and  _27
REMARK   13  A    between atoms: _27  and  _28
REMARK   14  A    between atoms: _37  and  _39
REMARK   15  A    between atoms: _39  and  _40
REMARK   16  A    between atoms: _39  and  _42
REMARK   17  A    between atoms: _42  and  _43
REMARK   18  A    between atoms: _48  and  _50
REMARK   19  A    between atoms: _50  and  _51
REMARK   20  A    between atoms: _50  and  _53
REMARK   21  A    between atoms: _53  and  _54
REMARK   22  A    between atoms: _57  and  _59
REMARK   23  A    between atoms: _59  and  _60
REMARK   24  A    between atoms: _59  and  _62
REMARK   25  A    between atoms: _62  and  _63
REMARK   26  A    between atoms: _63  and  _98
REMARK   27  A    between atoms: _64  and  _66
REMARK   28  A    between atoms: _66  and  _67
REMARK   29  A    between atoms: _69  and  _71
REMARK   30  A    between atoms: _71  and  _72
REMARK   31  A    between atoms: _75  and  _77
REMARK   32  A    between atoms: _77  and  _78
REMARK   33  A    between atoms: _81  and  _83
REMARK   34  A    between atoms: _83  and  _84
REMARK   35  A    between atoms: _83  and  _86
REMARK   36  A    between atoms: _86  and  _87
REMARK   37  A    between atoms: _92  and  _94
REMARK   38  A    between atoms: _94  and  _95
REMARK   39  A    between atoms: _94  and  _97
REMARK   40  A    between atoms: _97  and  _98
REMARK   41  A    between atoms: _99  and  _101
REMARK   42  A    between atoms: _101  and  _102
REMARK   43  A    between atoms: _101  and  _104
REMARK   44  A    between atoms: _104  and  _105
REMARK   45  A    between atoms: _111  and  _113
REMARK   46  A    between atoms: _113  and  _114
REMARK   47  A    between atoms: _113  and  _116
REMARK   48  A    between atoms: _116  and  _117
REMARK   49  A    between atoms: _122  and  _123
REMARK   50  A    between atoms: _125  and  _127
REMARK   51  A    between atoms: _127  and  _128
REMARK   52  A    between atoms: _130  and  _132
REMARK   53  A    between atoms: _132  and  _133
REMARK   54  A    between atoms: _132  and  _135
REMARK   55  A    between atoms: _138  and  _140
REMARK   56  A    between atoms: _140  and  _141
REMARK   57  A    between atoms: _140  and  _143
REMARK   58  A    between atoms: _143  and  _144
REMARK   59  A    between atoms: _149  and  _150
REMARK   60  A    between atoms: _152  and  _154
REMARK   61  A    between atoms: _154  and  _155
REMARK   62  A    between atoms: _158  and  _160
REMARK   63  A    between atoms: _160  and  _161
REMARK   64  A    between atoms: _160  and  _163
REMARK   65  A    between atoms: _163  and  _164
REMARK   66  A    between atoms: _164  and  _165
REMARK   67  A    between atoms: _168  and  _170
REMARK   68  A    between atoms: _170  and  _171
REMARK   69  A    between atoms: _170  and  _173
REMARK   70  A    between atoms: _173  and  _174
REMARK   71  A    between atoms: _177  and  _179
REMARK   72  A    between atoms: _179  and  _180
REMARK   73  A    between atoms: _179  and  _182
REMARK   74  A    between atoms: _185  and  _187
REMARK   75  A    between atoms: _187  and  _188
REMARK   76  A    between atoms: _187  and  _190
REMARK   77  A    between atoms: _190  and  _191
REMARK   78  A    between atoms: _201  and  _203
REMARK   79  A    between atoms: _203  and  _204
REMARK   80  A    between atoms: _206  and  _208
REMARK   81  A    between atoms: _208  and  _209
REMARK   82  A    between atoms: _208  and  _211
REMARK   83  A    between atoms: _211  and  _212
REMARK   84  A    between atoms: _217  and  _218
REMARK   85  A    between atoms: _220  and  _222
REMARK   86  A    between atoms: _222  and  _223
REMARK   87  A    between atoms: _222  and  _225
REMARK   88  A    between atoms: _225  and  _226
REMARK   89  A    between atoms: _226  and  _227
REMARK   90  A    between atoms: _227  and  _228
REMARK   91  A    between atoms: _228  and  _229
REMARK   92  A    between atoms: _233  and  _235
REMARK   93  A    between atoms: _235  and  _236
REMARK   94  A    between atoms: _235  and  _238
REMARK   95  A    between atoms: _238  and  _239
REMARK   96  A    between atoms: _242  and  _244
REMARK   97  A    between atoms: _244  and  _245
REMARK   98  A    between atoms: _244  and  _247
REMARK   99  A    between atoms: _247  and  _248
REMARK  100  A    between atoms: _248  and  _249
REMARK  101  A    between atoms: _249  and  _250
REMARK  102  A    between atoms: _259  and  _261
REMARK  103  A    between atoms: _261  and  _262
REMARK  104  A    between atoms: _261  and  _264
REMARK  105  A    between atoms: _264  and  _265
REMARK  106  A    between atoms: _268  and  _270
REMARK  107  A    between atoms: _270  and  _271
REMARK  108  A    between atoms: _270  and  _273
REMARK  109  A    between atoms: _273  and  _274
REMARK  110  A    between atoms: _274  and  _275
REMARK  111  A    between atoms: _275  and  _276
REMARK  112  A    between atoms: _276  and  _277
REMARK  113  A    between atoms: _281  and  _283
REMARK  114  A    between atoms: _283  and  _284
REMARK  115  A    between atoms: _283  and  _286
REMARK  116  A    between atoms: _286  and  _287
REMARK  117  A    between atoms: _290  and  _292
REMARK  118  A    between atoms: _292  and  _293
REMARK  119  A    between atoms: _292  and  _295
REMARK  120  A    between atoms: _295  and  _296
REMARK  121  A    between atoms: _296  and  _297
REMARK  122  A    between atoms: _302  and  _304
REMARK  123  A    between atoms: _304  and  _305
REMARK  124  A    between atoms: _304  and  _307
REMARK  125  A    between atoms: _307  and  _308
REMARK  126  A    between atoms: _311  and  _313
REMARK  127  A    between atoms: _313  and  _314
REMARK  128  A    between atoms: _313  and  _316
REMARK  129  A    between atoms: _316  and  _317
REMARK  130  A    between atoms: _322  and  _323
REMARK  131  A    between atoms: _325  and  _327
REMARK  132  A    between atoms: _327  and  _328
REMARK  133  A    between atoms: _327  and  _330
REMARK  134  A    between atoms: _330  and  _331
REMARK  135  A    between atoms: _334  and  _336
REMARK  136  A    between atoms: _336  and  _337
REMARK  137  A    between atoms: _336  and  _339
REMARK  138  A    between atoms: _341  and  _343
REMARK  139  A    between atoms: _343  and  _344
REMARK  140  A    between atoms: _347  and  _349
REMARK  141  A    between atoms: _349  and  _350
REMARK  142  A    between atoms: _349  and  _352
REMARK  143  A    between atoms: _352  and  _353
REMARK  144  A    between atoms: _356  and  _358
REMARK  145  A    between atoms: _358  and  _359
REMARK  146  A    between atoms: _362  and  _364
REMARK  147  A    between atoms: _364  and  _365
REMARK  148  A    between atoms: _364  and  _367
REMARK  149  A    between atoms: _367  and  _368
REMARK  150  A    between atoms: _368  and  _482
REMARK  151  A    between atoms: _369  and  _371
REMARK  152  A    between atoms: _371  and  _372
REMARK  153  A    between atoms: _371  and  _374
REMARK  154  A    between atoms: _374  and  _375
REMARK  155  A    between atoms: _375  and  _376
REMARK  156  A    between atoms: _376  and  _377
REMARK  157  A    between atoms: _377  and  _378
REMARK  158  A    between atoms: _382  and  _384
REMARK  159  A    between atoms: _384  and  _385
REMARK  160  A    between atoms: _387  and  _389
REMARK  161  A    between atoms: _389  and  _390
REMARK  162  A    between atoms: _389  and  _392
REMARK  163  A    between atoms: _392  and  _393
REMARK  164  A    between atoms: _396  and  _398
REMARK  165  A    between atoms: _398  and  _399
REMARK  166  A    between atoms: _398  and  _401
REMARK  167  A    between atoms: _401  and  _402
REMARK  168  A    between atoms: _404  and  _406
REMARK  169  A    between atoms: _406  and  _407
REMARK  170  A    between atoms: _409  and  _411
REMARK  171  A    between atoms: _411  and  _412
REMARK  172  A    between atoms: _414  and  _416
REMARK  173  A    between atoms: _416  and  _417
REMARK  174  A    between atoms: _416  and  _419
REMARK  175  A    between atoms: _419  and  _420
REMARK  176  A    between atoms: _423  and  _425
REMARK  177  A    between atoms: _425  and  _426
REMARK  178  A    between atoms: _425  and  _428
REMARK  179  A    between atoms: _428  and  _429
REMARK  180  A    between atoms: _432  and  _434
REMARK  181  A    between atoms: _434  and  _435
REMARK  182  A    between atoms: _434  and  _437
REMARK  183  A    between atoms: _437  and  _438
REMARK  184  A    between atoms: _440  and  _442
REMARK  185  A    between atoms: _442  and  _443
REMARK  186  A    between atoms: _442  and  _445
REMARK  187  A    between atoms: _445  and  _446
REMARK  188  A    between atoms: _456  and  _458
REMARK  189  A    between atoms: _458  and  _459
REMARK  190  A    between atoms: _461  and  _463
REMARK  191  A    between atoms: _463  and  _464
REMARK  192  A    between atoms: _463  and  _466
REMARK  193  A    between atoms: _466  and  _467
REMARK  194  A    between atoms: _467  and  _468
REMARK  195  A    between atoms: _471  and  _473
REMARK  196  A    between atoms: _473  and  _474
REMARK  197  A    between atoms: _476  and  _478
REMARK  198  A    between atoms: _478  and  _479
REMARK  199  A    between atoms: _478  and  _481
REMARK  200  A    between atoms: _481  and  _482
REMARK  201  A    between atoms: _483  and  _485
REMARK  202  A    between atoms: _485  and  _486
REMARK  203  A    between atoms: _489  and  _491
REMARK  204  A    between atoms: _491  and  _492
REMARK  205  A    between atoms: _491  and  _494
REMARK  206  A    between atoms: _494  and  _495
REMARK  207  A    between atoms: _495  and  _496
REMARK  208  A    between atoms: _501  and  _503
REMARK  209  A    between atoms: _503  and  _504
REMARK  210  A    between atoms: _503  and  _506
REMARK  211  A    between atoms: _506  and  _507
REMARK  212  A    between atoms: _507  and  _508
REMARK  213  A    between atoms: _508  and  _509
REMARK  214  A    between atoms: _519  and  _520
REMARK  215  A    between atoms: _525  and  _527
REMARK  216  A    between atoms: _527  and  _528
REMARK  217  A    between atoms: _530  and  _532
REMARK  218  A    between atoms: _532  and  _533
REMARK  219  A    between atoms: _532  and  _535
REMARK  220  A    between atoms: _538  and  _540
REMARK  221  A    between atoms: _540  and  _541
REMARK  222  A    between atoms: _540  and  _543
REMARK  223  A    between atoms: _543  and  _544
REMARK  224  A    between atoms: _549  and  _550
REMARK  225  A    between atoms: _552  and  _554
REMARK  226  A    between atoms: _554  and  _555
REMARK  227  A    between atoms: _554  and  _557
REMARK  228  A    between atoms: _557  and  _558
REMARK                            x       y       z     vdW  Elec       q    Type
REMARK                         _______ _______ _______ _____ _____    ______ ____
ROOT
ATOM      1  CA  VAL A   1     -39.346  -3.602 -21.460  0.00  0.00    +0.133 C 
ENDROOT
BRANCH   1   2
ATOM      2  CB  VAL A   1     -40.200  -4.500 -20.526  0.00  0.00    +0.023 C 
ATOM      3  CG2 VAL A   1     -40.808  -3.724 -19.374  0.00  0.00    +0.002 C 
ATOM      4  CG1 VAL A   1     -41.263  -5.250 -21.315  0.00  0.00    +0.002 C 
ENDBRANCH   1   2
BRANCH   1   5
ATOM      5  N   VAL A   1     -38.238  -2.972 -20.745  0.00  0.00    -0.239 NA
ATOM      6  H   VAL A   1     -38.434  -2.428 -19.881  0.00  0.00    +0.142 HD
ENDBRANCH   1   5
BRANCH   1   7
ATOM      7  C   VAL A   1     -40.167  -2.511 -22.136  0.00  0.00    +0.224 C 
ATOM      8  O   VAL A   1     -40.406  -1.449 -21.552  0.00  0.00    -0.287 OA
ENDBRANCH   1   7
TORSDOF 3
REMARK  Name = ../refined-set-2016/4crc/4crc_pocket.pdb
REMARK  228 active torsions:
REMARK  status: ('A' for Active; 'I' for Inactive)
REMARK    1  A    between atoms: _1  and  _5
REMARK    2  A    between atoms: _5  and  _6
REMARK    3  A    between atoms: _5  and  _8
REMARK    4  A    between atoms: _8  and  _9
REMARK    5  A    between atoms: _12  and  _14
REMARK    6  A    between atoms: _14  and  _15
REMARK    7  A    between atoms: _14  and  _17
REMARK    8  A    between atoms: _20  and  _22
REMARK    9  A    between atoms: _22  and  _23
REMARK   10  A    between atoms: _22  and  _25
REMARK   11  A    between atoms: _25  and  _26
REMARK   12  A    between atoms: _26  and  _27
REMARK   13  A    between atoms: _27  and  _28
REMARK   14  A    between atoms: _37  and  _39
REMARK   15  A    between atoms: _39  and  _40
REMARK   16  A    between atoms: _39  and  _42
REMARK   17  A    between atoms: _42  and  _43
REMARK   18  A    between atoms: _48  and  _50
REMARK   19  A    between atoms: _50  and  _51
REMARK   20  A    between atoms: _50  and  _53
REMARK   21  A    between atoms: _53  and  _54
REMARK   22  A    between atoms: _57  and  _59
REMARK   23  A    between atoms: _59  and  _60
REMARK   24  A    between atoms: _59  and  _62
REMARK   25  A    between atoms: _62  and  _63
REMARK   26  A    between atoms: _63  and  _98
REMARK   27  A    between atoms: _64  and  _66
REMARK   28  A    between atoms: _66  and  _67
REMARK   29  A    between atoms: _69  and  _71
REMARK   30  A    between atoms: _71  and  _72
REMARK   31  A    between atoms: _75  and  _77
REMARK   32  A    between atoms: _77  and  _78
REMARK   33  A    between atoms: _81  and  _83
REMARK   34  A    between atoms: _83  and  _84
REMARK   35  A    between atoms: _83  and  _86
REMARK   36  A    between atoms: _86  and  _87
REMARK   37  A    between atoms: _92  and  _94
REMARK   38  A    between atoms: _94  and  _95
REMARK   39  A    between atoms: _94  and  _97
REMARK   40  A    between atoms: _97  and  _98
REMARK   41  A    between atoms: _99  and  _101
REMARK   42  A    between atoms: _101  and  _102
REMARK   43  A    between atoms: _101  and  _104
REMARK   44  A    between atoms: _104  and  _105
REMARK   45  A    between atoms: _111  and  _113
REMARK   46  A    between atoms: _113  and  _114
REMARK   47  A    between atoms: _113  and  _116
REMARK   48  A    between atoms: _116  and  _117
REMARK   49  A    between atoms: _122  and  _123
REMARK   50  A    between atoms: _125  and  _127
REMARK   51  A    between atoms: _127  and  _128
REMARK   52  A    between atoms: _130  and  _132
REMARK   53  A    between atoms: _132  and  _133
REMARK   54  A    between atoms: _132  and  _135
REMARK   55  A    between atoms: _138  and  _140
REMARK   56  A    between atoms: _140  and  _141
REMARK   57  A    between atoms: _140  and  _143
REMARK   58  A    between atoms: _143  and  _144
REMARK   59  A    between atoms: _149  and  _150
REMARK   60  A    between atoms: _152  and  _154
REMARK   61  A    between atoms: _154  and  _155
REMARK   62  A    between atoms: _158  and  _160
REMARK   63  A    between atoms: _160  and  _161
REMARK   64  A    between atoms: _160  and  _163
REMARK   65  A    between atoms: _163  and  _164
REMARK   66  A    between atoms: _164  and  _165
REMARK   67  A    between atoms: _168  and  _170
REMARK   68  A    between atoms: _170  and  _171
REMARK   69  A    between atoms: _170  and  _173
REMARK   70  A    between atoms: _173  and  _174
REMARK   71  A    between atoms: _177  and  _179
REMARK   72  A    between atoms: _179  and  _180
REMARK   73  A    between atoms: _179  and  _182
REMARK   74  A    between atoms: _185  and  _187
REMARK   75  A    between atoms: _187  and  _188
REMARK   76  A    between atoms: _187  and  _190
REMARK   77  A    between atoms: _190  and  _191
REMARK   78  A    between atoms: _201  and  _203
REMARK   79  A    between atoms: _203  and  _204
REMARK   80  A    between atoms: _206  and  _208
REMARK   81  A    between atoms: _208  and  _209
REMARK   82  A    between atoms: _208  and  _211
REMARK   83  A    between atoms: _211  and  _212
REMARK   84  A    between atoms: _217  and  _218
REMARK   85  A    between atoms: _220  and  _222
REMARK   86  A    between atoms: _222  and  _223
REMARK   87  A    between atoms: _222  and  _225
REMARK   88  A    between atoms: _225  and  _226
REMARK   89  A    between atoms: _226  and  _227
REMARK   90  A    between atoms: _227  and  _228
REMARK   91  A    between atoms: _228  and  _229
REMARK   92  A    between atoms: _233  and  _235
REMARK   93  A    between atoms: _235  and  _236
REMARK   94  A    between atoms: _235  and  _238
REMARK   95  A    between atoms: _238  and  _239
REMARK   96  A    between atoms: _242  and  _244
REMARK   97  A    between atoms: _244  and  _245
REMARK   98  A    between atoms: _244  and  _247
REMARK   99  A    between atoms: _247  and  _248
REMARK  100  A    between atoms: _248  and  _249
REMARK  101  A    between atoms: _249  and  _250
REMARK  102  A    between atoms: _259  and  _261
REMARK  103  A    between atoms: _261  and  _262
REMARK  104  A    between atoms: _261  and  _264
REMARK  105  A    between atoms: _264  and  _265
REMARK  106  A    between atoms: _268  and  _270
REMARK  107  A    between atoms: _270  and  _271
REMARK  108  A    between atoms: _270  and  _273
REMARK  109  A    between atoms: _273  and  _274
REMARK  110  A    between atoms: _274  and  _275
REMARK  111  A    between atoms: _275  and  _276
REMARK  112  A    between atoms: _276  and  _277
REMARK  113  A    between atoms: _281  and  _283
REMARK  114  A    between atoms: _283  and  _284
REMARK  115  A    between atoms: _283  and  _286
REMARK  116  A    between atoms: _286  and  _287
REMARK  117  A    between atoms: _290  and  _292
REMARK  118  A    between atoms: _292  and  _293
REMARK  119  A    between atoms: _292  and  _295
REMARK  120  A    between atoms: _295  and  _296
REMARK  121  A    between atoms: _296  and  _297
REMARK  122  A    between atoms: _302  and  _304
REMARK  123  A    between atoms: _304  and  _305
REMARK  124  A    between atoms: _304  and  _307
REMARK  125  A    between atoms: _307  and  _308
REMARK  126  A    between atoms: _311  and  _313
REMARK  127  A    between atoms: _313  and  _314
REMARK  128  A    between atoms: _313  and  _316
REMARK  129  A    between atoms: _316  and  _317
REMARK  130  A    between atoms: _322  and  _323
REMARK  131  A    between atoms: _325  and  _327
REMARK  132  A    between atoms: _327  and  _328
REMARK  133  A    between atoms: _327  and  _330
REMARK  134  A    between atoms: _330  and  _331
REMARK  135  A    between atoms: _334  and  _336
REMARK  136  A    between atoms: _336  and  _337
REMARK  137  A    between atoms: _336  and  _339
REMARK  138  A    between atoms: _341  and  _343
REMARK  139  A    between atoms: _343  and  _344
REMARK  140  A    between atoms: _347  and  _349
REMARK  141  A    between atoms: _349  and  _350
REMARK  142  A    between atoms: _349  and  _352
REMARK  143  A    between atoms: _352  and  _353
REMARK  144  A    between atoms: _356  and  _358
REMARK  145  A    between atoms: _358  and  _359
REMARK  146  A    between atoms: _362  and  _364
REMARK  147  A    between atoms: _364  and  _365
REMARK  148  A    between atoms: _364  and  _367
REMARK  149  A    between atoms: _367  and  _368
REMARK  150  A    between atoms: _368  and  _482
REMARK  151  A    between atoms: _369  and  _371
REMARK  152  A    between atoms: _371  and  _372
REMARK  153  A    between atoms: _371  and  _374
REMARK  154  A    between atoms: _374  and  _375
REMARK  155  A    between atoms: _375  and  _376
REMARK  156  A    between atoms: _376  and  _377
REMARK  157  A    between atoms: _377  and  _378
REMARK  158  A    between atoms: _382  and  _384
REMARK  159  A    between atoms: _384  and  _385
REMARK  160  A    between atoms: _387  and  _389
REMARK  161  A    between atoms: _389  and  _390
REMARK  162  A    between atoms: _389  and  _392
REMARK  163  A    between atoms: _392  and  _393
REMARK  164  A    between atoms: _396  and  _398
REMARK  165  A    between atoms: _398  and  _399
REMARK  166  A    between atoms: _398  and  _401
REMARK  167  A    between atoms: _401  and  _402
REMARK  168  A    between atoms: _404  and  _406
REMARK  169  A    between atoms: _406  and  _407
REMARK  170  A    between atoms: _409  and  _411
REMARK  171  A    between atoms: _411  and  _412
REMARK  172  A    between atoms: _414  and  _416
REMARK  173  A    between atoms: _416  and  _417
REMARK  174  A    between atoms: _416  and  _419
REMARK  175  A    between atoms: _419  and  _420
REMARK  176  A    between atoms: _423  and  _425
REMARK  177  A    between atoms: _425  and  _426
REMARK  178  A    between atoms: _425  and  _428
REMARK  179  A    between atoms: _428  and  _429
REMARK  180  A    between atoms: _432  and  _434
REMARK  181  A    between atoms: _434  and  _435
REMARK  182  A    between atoms: _434  and  _437
REMARK  183  A    between atoms: _437  and  _438
REMARK  184  A    between atoms: _440  and  _442
REMARK  185  A    between atoms: _442  and  _443
REMARK  186  A    between atoms: _442  and  _445
REMARK  187  A    between atoms: _445  and  _446
REMARK  188  A    between atoms: _456  and  _458
REMARK  189  A    between atoms: _458  and  _459
REMARK  190  A    between atoms: _461  and  _463
REMARK  191  A    between atoms: _463  and  _464
REMARK  192  A    between atoms: _463  and  _466
REMARK  193  A    between atoms: _466  and  _467
REMARK  194  A    between atoms: _467  and  _468
REMARK  195  A    between atoms: _471  and  _473
REMARK  196  A    between atoms: _473  and  _474
REMARK  197  A    between atoms: _476  and  _478
REMARK  198  A    between atoms: _478  and  _479
REMARK  199  A    between atoms: _478  and  _481
REMARK  200  A    between atoms: _481  and  _482
REMARK  201  A    between atoms: _483  and  _485
REMARK  202  A    between atoms: _485  and  _486
REMARK  203  A    between atoms: _489  and  _491
REMARK  204  A    between atoms: _491  and  _492
REMARK  205  A    between atoms: _491  and  _494
REMARK  206  A    between atoms: _494  and  _495
REMARK  207  A    between atoms: _495  and  _496
REMARK  208  A    between atoms: _501  and  _503
REMARK  209  A    between atoms: _503  and  _504
REMARK  210  A    between atoms: _503  and  _506
REMARK  211  A    between atoms: _506  and  _507
REMARK  212  A    between atoms: _507  and  _508
REMARK  213  A    between atoms: _508  and  _509
REMARK  214  A    between atoms: _519  and  _520
REMARK  215  A    between atoms: _525  and  _527
REMARK  216  A    between atoms: _527  and  _528
REMARK  217  A    between atoms: _530  and  _532
REMARK  218  A    between atoms: _532  and  _533
REMARK  219  A    between atoms: _532  and  _535
REMARK  220  A    between atoms: _538  and  _540
REMARK  221  A    between atoms: _540  and  _541
REMARK  222  A    between atoms: _540  and  _543
REMARK  223  A    between atoms: _543  and  _544
REMARK  224  A    between atoms: _549  and  _550
REMARK  225  A    between atoms: _552  and  _554
REMARK  226  A    between atoms: _554  and  _555
REMARK  227  A    between atoms: _554  and  _557
REMARK  228  A    between atoms: _557  and  _558
REMARK                            x       y       z     vdW  Elec       q    Type
REMARK                         _______ _______ _______ _____ _____    ______ ____
ROOT
ATOM      1  C   TRP A   1     -49.205  -1.141 -25.711  0.00  0.00    +0.239 C 
ATOM      2  N   GLY A   2     -48.812  -2.013 -24.794  0.00  0.00    -0.296 N 
ATOM      3  H   GLY A   2     -47.798  -2.221 -24.694  0.00  0.00    +0.150 HD
ATOM      4  O   TRP A   1     -50.386  -0.829 -25.860  0.00  0.00    -0.274 OA
ENDROOT
BRANCH   1   5
ATOM      5  CA  TRP A   1     -48.107  -0.512 -26.583  0.00  0.00    +0.149 C 
BRANCH   5   6
ATOM      6  N   TRP A   1     -46.868  -1.282 -26.529  0.00  0.00    -0.238 NA
ATOM      7  H   TRP A   1     -46.810  -2.158 -27.087  0.00  0.00    +0.142 HD
ENDBRANCH   5   6
BRANCH   5   8
ATOM      8  CB  TRP A   1     -48.585  -0.433 -28.037  0.00  0.00    +0.054 C 
BRANCH   8   9
ATOM      9  CG  TRP A   1     -47.726   0.419 -28.929  0.00  0.00    -0.002 A 
ATOM     10  CD1 TRP A   1     -47.842   1.761 -29.119  0.00  0.00    +0.068 A 
ATOM     11  NE1 TRP A   1     -46.896   2.205 -30.008  0.00  0.00    -0.352 N 
ATOM     12  HE1 TRP A   1     -46.768   3.191 -30.312  0.00  0.00    +0.166 HD
ATOM     13  CE2 TRP A   1     -46.148   1.138 -30.430  0.00  0.00    +0.056 A 
ATOM     14  CZ2 TRP A   1     -45.074   1.089 -31.322  0.00  0.00    +0.017 A 
ATOM     15  CH2 TRP A   1     -44.500  -0.131 -31.554  0.00  0.00    +0.001 A 
ATOM     16  CZ3 TRP A   1     -44.970  -1.295 -30.917  0.00  0.00    +0.000 A 
ATOM     17  CE3 TRP A   1     -46.025  -1.242 -30.015  0.00  0.00    +0.001 A 
ATOM     18  CD2 TRP A   1     -46.631  -0.008 -29.762  0.00  0.00    +0.013 A 
ENDBRANCH   8   9
ENDBRANCH   5   8
ENDBRANCH   1   5
BRANCH   2  19
ATOM     19  CA  GLY A   2     -49.764  -2.688 -23.923  0.00  0.00    +0.176 C 
BRANCH  19  20
ATOM     20  C   GLY A   2     -50.436  -1.819 -22.885  0.00  0.00    +0.243 C 
ATOM     21  N   TYR A   3     -51.377  -2.431 -22.185  0.00  0.00    -0.298 N 
ATOM     22  H   TYR A   3     -51.606  -3.420 -22.413  0.00  0.00    +0.150 HD
ATOM     23  O   GLY A   2     -50.130  -0.642 -22.725  0.00  0.00    -0.273 OA
BRANCH  21  24
ATOM     24  CA  TYR A   3     -52.106  -1.773 -21.106  0.00  0.00    +0.141 C 
BRANCH  24  25
ATOM     25  C   TYR A   3     -51.157  -1.209 -20.044  0.00  0.00    +0.227 C 
ATOM     26  O   TYR A   3     -50.087  -1.765 -19.790  0.00  0.00    -0.286 OA
ENDBRANCH  24  25
BRANCH  24  27
ATOM     27  CB  TYR A   3     -53.007  -2.789 -20.418  0.00  0.00    +0.054 C 
BRANCH  27  28
ATOM     28  CG  TYR A   3     -54.184  -3.348 -21.208  0.00  0.00    -0.020 A 
ATOM     29  CD2 TYR A   3     -55.166  -4.083 -20.551  0.00  0.00    -0.001 A 
ATOM     30  CE2 TYR A   3     -56.230  -4.638 -21.238  0.00  0.00    +0.036 A 
ATOM     31  CZ  TYR A   3     -56.335  -4.467 -22.603  0.00  0.00    +0.134 A 
ATOM     32  CE1 TYR A   3     -55.371  -3.746 -23.287  0.00  0.00    +0.036 A 
ATOM     33  CD1 TYR A   3     -54.297  -3.200 -22.591  0.00  0.00    -0.001 A 
BRANCH  31  34
ATOM     34  OH  TYR A   3     -57.401  -5.031 -23.276  0.00  0.00    -0.506 OA
ATOM     35  HH  TYR A   3     -57.331  -4.818 -24.240  0.00  0.00    +0.292 HD
ENDBRANCH  31  34
ENDBRANCH  27  28
ENDBRANCH  24  27
ENDBRANCH  21  24
ENDBRANCH  19  20
ENDBRANCH   2  19
TORSDOF 11
REMARK  Name = ../refined-set-2016/4crc/4crc_pocket.pdb
REMARK  228 active torsions:
REMARK  status: ('A' for Active; 'I' for Inactive)
REMARK    1  A    between atoms: _1  and  _5
REMARK    2  A    between atoms: _5  and  _6
REMARK    3  A    between atoms: _5  and  _8
REMARK    4  A    between atoms: _8  and  _9
REMARK    5  A    between atoms: _12  and  _14
REMARK    6  A    between atoms: _14  and  _15
REMARK    7  A    between atoms: _14  and  _17
REMARK    8  A    between atoms: _20  and  _22
REMARK    9  A    between atoms: _22  and  _23
REMARK   10  A    between atoms: _22  and  _25
REMARK   11  A    between atoms: _25  and  _26
REMARK   12  A    between atoms: _26  and  _27
REMARK   13  A    between atoms: _27  and  _28
REMARK   14  A    between atoms: _37  and  _39
REMARK   15  A    between atoms: _39  and  _40
REMARK   16  A    between atoms: _39  and  _42
REMARK   17  A    between atoms: _42  and  _43
REMARK   18  A    between atoms: _48  and  _50
REMARK   19  A    between atoms: _50  and  _51
REMARK   20  A    between atoms: _50  and  _53
REMARK   21  A    between atoms: _53  and  _54
REMARK   22  A    between atoms: _57  and  _59
REMARK   23  A    between atoms: _59  and  _60
REMARK   24  A    between atoms: _59  and  _62
REMARK   25  A    between atoms: _62  and  _63
REMARK   26  A    between atoms: _63  and  _98
REMARK   27  A    between atoms: _64  and  _66
REMARK   28  A    between atoms: _66  and  _67
REMARK   29  A    between atoms: _69  and  _71
REMARK   30  A    between atoms: _71  and  _72
REMARK   31  A    between atoms: _75  and  _77
REMARK   32  A    between atoms: _77  and  _78
REMARK   33  A    between atoms: _81  and  _83
REMARK   34  A    between atoms: _83  and  _84
REMARK   35  A    between atoms: _83  and  _86
REMARK   36  A    between atoms: _86  and  _87
REMARK   37  A    between atoms: _92  and  _94
REMARK   38  A    between atoms: _94  and  _95
REMARK   39  A    between atoms: _94  and  _97
REMARK   40  A    between atoms: _97  and  _98
REMARK   41  A    between atoms: _99  and  _101
REMARK   42  A    between atoms: _101  and  _102
REMARK   43  A    between atoms: _101  and  _104
REMARK   44  A    between atoms: _104  and  _105
REMARK   45  A    between atoms: _111  and  _113
REMARK   46  A    between atoms: _113  and  _114
REMARK   47  A    between atoms: _113  and  _116
REMARK   48  A    between atoms: _116  and  _117
REMARK   49  A    between atoms: _122  and  _123
REMARK   50  A    between atoms: _125  and  _127
REMARK   51  A    between atoms: _127  and  _128
REMARK   52  A    between atoms: _130  and  _132
REMARK   53  A    between atoms: _132  and  _133
REMARK   54  A    between atoms: _132  and  _135
REMARK   55  A    between atoms: _138  and  _140
REMARK   56  A    between atoms: _140  and  _141
REMARK   57  A    between atoms: _140  and  _143
REMARK   58  A    between atoms: _143  and  _144
REMARK   59  A    between atoms: _149  and  _150
REMARK   60  A    between atoms: _152  and  _154
REMARK   61  A    between atoms: _154  and  _155
REMARK   62  A    between atoms: _158  and  _160
REMARK   63  A    between atoms: _160  and  _161
REMARK   64  A    between atoms: _160  and  _163
REMARK   65  A    between atoms: _163  and  _164
REMARK   66  A    between atoms: _164  and  _165
REMARK   67  A    between atoms: _168  and  _170
REMARK   68  A    between atoms: _170  and  _171
REMARK   69  A    between atoms: _170  and  _173
REMARK   70  A    between atoms: _173  and  _174
REMARK   71  A    between atoms: _177  and  _179
REMARK   72  A    between atoms: _179  and  _180
REMARK   73  A    between atoms: _179  and  _182
REMARK   74  A    between atoms: _185  and  _187
REMARK   75  A    between atoms: _187  and  _188
REMARK   76  A    between atoms: _187  and  _190
REMARK   77  A    between atoms: _190  and  _191
REMARK   78  A    between atoms: _201  and  _203
REMARK   79  A    between atoms: _203  and  _204
REMARK   80  A    between atoms: _206  and  _208
REMARK   81  A    between atoms: _208  and  _209
REMARK   82  A    between atoms: _208  and  _211
REMARK   83  A    between atoms: _211  and  _212
REMARK   84  A    between atoms: _217  and  _218
REMARK   85  A    between atoms: _220  and  _222
REMARK   86  A    between atoms: _222  and  _223
REMARK   87  A    between atoms: _222  and  _225
REMARK   88  A    between atoms: _225  and  _226
REMARK   89  A    between atoms: _226  and  _227
REMARK   90  A    between atoms: _227  and  _228
REMARK   91  A    between atoms: _228  and  _229
REMARK   92  A    between atoms: _233  and  _235
REMARK   93  A    between atoms: _235  and  _236
REMARK   94  A    between atoms: _235  and  _238
REMARK   95  A    between atoms: _238  and  _239
REMARK   96  A    between atoms: _242  and  _244
REMARK   97  A    between atoms: _244  and  _245
REMARK   98  A    between atoms: _244  and  _247
REMARK   99  A    between atoms: _247  and  _248
REMARK  100  A    between atoms: _248  and  _249
REMARK  101  A    between atoms: _249  and  _250
REMARK  102  A    between atoms: _259  and  _261
REMARK  103  A    between atoms: _261  and  _262
REMARK  104  A    between atoms: _261  and  _264
REMARK  105  A    between atoms: _264  and  _265
REMARK  106  A    between atoms: _268  and  _270
REMARK  107  A    between atoms: _270  and  _271
REMARK  108  A    between atoms: _270  and  _273
REMARK  109  A    between atoms: _273  and  _274
REMARK  110  A    between atoms: _274  and  _275
REMARK  111  A    between atoms: _275  and  _276
REMARK  112  A    between atoms: _276  and  _277
REMARK  113  A    between atoms: _281  and  _283
REMARK  114  A    between atoms: _283  and  _284
REMARK  115  A    between atoms: _283  and  _286
REMARK  116  A    between atoms: _286  and  _287
REMARK  117  A    between atoms: _290  and  _292
REMARK  118  A    between atoms: _292  and  _293
REMARK  119  A    between atoms: _292  and  _295
REMARK  120  A    between atoms: _295  and  _296
REMARK  121  A    between atoms: _296  and  _297
REMARK  122  A    between atoms: _302  and  _304
REMARK  123  A    between atoms: _304  and  _305
REMARK  124  A    between atoms: _304  and  _307
REMARK  125  A    between atoms: _307  and  _308
REMARK  126  A    between atoms: _311  and  _313
REMARK  127  A    between atoms: _313  and  _314
REMARK  128  A    between atoms: _313  and  _316
REMARK  129  A    between atoms: _316  and  _317
REMARK  130  A    between atoms: _322  and  _323
REMARK  131  A    between atoms: _325  and  _327
REMARK  132  A    between atoms: _327  and  _328
REMARK  133  A    between atoms: _327  and  _330
REMARK  134  A    between atoms: _330  and  _331
REMARK  135  A    between atoms: _334  and  _336
REMARK  136  A    between atoms: _336  and  _337
REMARK  137  A    between atoms: _336  and  _339
REMARK  138  A    between atoms: _341  and  _343
REMARK  139  A    between atoms: _343  and  _344
REMARK  140  A    between atoms: _347  and  _349
REMARK  141  A    between atoms: _349  and  _350
REMARK  142  A    between atoms: _349  and  _352
REMARK  143  A    between atoms: _352  and  _353
REMARK  144  A    between atoms: _356  and  _358
REMARK  145  A    between atoms: _358  and  _359
REMARK  146  A    between atoms: _362  and  _364
REMARK  147  A    between atoms: _364  and  _365
REMARK  148  A    between atoms: _364  and  _367
REMARK  149  A    between atoms: _367  and  _368
REMARK  150  A    between atoms: _368  and  _482
REMARK  151  A    between atoms: _369  and  _371
REMARK  152  A    between atoms: _371  and  _372
REMARK  153  A    between atoms: _371  and  _374
REMARK  154  A    between atoms: _374  and  _375
REMARK  155  A    between atoms: _375  and  _376
REMARK  156  A    between atoms: _376  and  _377
REMARK  157  A    between atoms: _377  and  _378
REMARK  158  A    between atoms: _382  and  _384
REMARK  159  A    between atoms: _384  and  _385
REMARK  160  A    between atoms: _387  and  _389
REMARK  161  A    between atoms: _389  and  _390
REMARK  162  A    between atoms: _389  and  _392
REMARK  163  A    between atoms: _392  and  _393
REMARK  164  A    between atoms: _396  and  _398
REMARK  165  A    between atoms: _398  and  _399
REMARK  166  A    between atoms: _398  and  _401
REMARK  167  A    between atoms: _401  and  _402
REMARK  168  A    between atoms: _404  and  _406
REMARK  169  A    between atoms: _406  and  _407
REMARK  170  A    between atoms: _409  and  _411
REMARK  171  A    between atoms: _411  and  _412
REMARK  172  A    between atoms: _414  and  _416
REMARK  173  A    between atoms: _416  and  _417
REMARK  174  A    between atoms: _416  and  _419
REMARK  175  A    between atoms: _419  and  _420
REMARK  176  A    between atoms: _423  and  _425
REMARK  177  A    between atoms: _425  and  _426
REMARK  178  A    between atoms: _425  and  _428
REMARK  179  A    between atoms: _428  and  _429
REMARK  180  A    between atoms: _432  and  _434
REMARK  181  A    between atoms: _434  and  _435
REMARK  182  A    between atoms: _434  and  _437
REMARK  183  A    between atoms: _437  and  _438
REMARK  184  A    between atoms: _440  and  _442
REMARK  185  A    between atoms: _442  and  _443
REMARK  186  A    between atoms: _442  and  _445
REMARK  187  A    between atoms: _445  and  _446
REMARK  188  A    between atoms: _456  and  _458
REMARK  189  A    between atoms: _458  and  _459
REMARK  190  A    between atoms: _461  and  _463
REMARK  191  A    between atoms: _463  and  _464
REMARK  192  A    between atoms: _463  and  _466
REMARK  193  A    between atoms: _466  and  _467
REMARK  194  A    between atoms: _467  and  _468
REMARK  195  A    between atoms: _471  and  _473
REMARK  196  A    between atoms: _473  and  _474
REMARK  197  A    between atoms: _476  and  _478
REMARK  198  A    between atoms: _478  and  _479
REMARK  199  A    between atoms: _478  and  _481
REMARK  200  A    between atoms: _481  and  _482
REMARK  201  A    between atoms: _483  and  _485
REMARK  202  A    between atoms: _485  and  _486
REMARK  203  A    between atoms: _489  and  _491
REMARK  204  A    between atoms: _491  and  _492
REMARK  205  A    between atoms: _491  and  _494
REMARK  206  A    between atoms: _494  and  _495
REMARK  207  A    between atoms: _495  and  _496
REMARK  208  A    between atoms: _501  and  _503
REMARK  209  A    between atoms: _503  and  _504
REMARK  210  A    between atoms: _503  and  _506
REMARK  211  A    between atoms: _506  and  _507
REMARK  212  A    between atoms: _507  and  _508
REMARK  213  A    between atoms: _508  and  _509
REMARK  214  A    between atoms: _519  and  _520
REMARK  215  A    between atoms: _525  and  _527
REMARK  216  A    between atoms: _527  and  _528
REMARK  217  A    between atoms: _530  and  _532
REMARK  218  A    between atoms: _532  and  _533
REMARK  219  A    between atoms: _532  and  _535
REMARK  220  A    between atoms: _538  and  _540
REMARK  221  A    between atoms: _540  and  _541
REMARK  222  A    between atoms: _540  and  _543
REMARK  223  A    between atoms: _543  and  _544
REMARK  224  A    between atoms: _549  and  _550
REMARK  225  A    between atoms: _552  and  _554
REMARK  226  A    between atoms: _554  and  _555
REMARK  227  A    between atoms: _554  and  _557
REMARK  228  A    between atoms: _557  and  _558
REMARK                            x       y       z     vdW  Elec       q    Type
REMARK                         _______ _______ _______ _____ _____    ______ ____
ROOT
ATOM      1  C   ARG A   3     -57.442  -1.783 -17.475  0.00  0.00    +0.241 C 
ATOM      2  O   ARG A   3     -57.334  -0.817 -16.728  0.00  0.00    -0.273 OA
ATOM      3  N   ASP A   4     -57.246  -1.710 -18.785  0.00  0.00    -0.297 N 
ATOM      4  H   ASP A   4     -57.394  -2.561 -19.365  0.00  0.00    +0.150 HD
ENDROOT
BRANCH   3   5
ATOM      5  CA  ASP A   4     -56.830  -0.475 -19.437  0.00  0.00    +0.160 C 
BRANCH   5   6
ATOM      6  C   ASP A   4     -57.064  -0.682 -20.927  0.00  0.00    +0.241 C 
ATOM      7  O   ASP A   4     -57.980  -1.397 -21.305  0.00  0.00    -0.273 OA
ATOM      8  N   LYS A   5     -56.263  -0.065 -21.782  0.00  0.00    -0.297 N 
ATOM      9  H   LYS A   5     -55.530   0.586 -21.434  0.00  0.00    +0.150 HD
BRANCH   8  10
ATOM     10  CA  LYS A   5     -56.411  -0.299 -23.203  0.00  0.00    +0.149 C 
BRANCH  10  11
ATOM     11  C   LYS A   5     -55.064  -0.193 -23.886  0.00  0.00    +0.241 C 
ATOM     12  O   LYS A   5     -54.067   0.195 -23.265  0.00  0.00    -0.273 OA
ATOM     13  N   ILE A   6     -55.049  -0.541 -25.163  0.00  0.00    -0.297 N 
ATOM     14  H   ILE A   6     -55.917  -0.913 -25.599  0.00  0.00    +0.150 HD
BRANCH  13  15
ATOM     15  CA  ILE A   6     -53.846  -0.415 -25.971  0.00  0.00    +0.149 C 
BRANCH  15  16
ATOM     16  C   ILE A   6     -53.470   1.067 -26.043  0.00  0.00    +0.241 C 
ATOM     17  N   GLN A   7     -52.184   1.342 -25.867  0.00  0.00    -0.298 N 
ATOM     18  H   GLN A   7     -51.519   0.553 -25.736  0.00  0.00    +0.150 HD
ATOM     19  O   ILE A   6     -54.332   1.950 -26.220  0.00  0.00    -0.273 OA
BRANCH  17  20
ATOM     20  CA  GLN A   7     -51.664   2.703 -25.850  0.00  0.00    +0.137 C 
BRANCH  20  21
ATOM     21  C   GLN A   7     -51.401   3.210 -27.256  0.00  0.00    +0.227 C 
ATOM     22  O   GLN A   7     -51.056   2.443 -28.149  0.00  0.00    -0.286 OA
ENDBRANCH  20  21
BRANCH  20  23
ATOM     23  CB  GLN A   7     -50.361   2.761 -25.049  0.00  0.00    +0.037 C 
BRANCH  23  24
ATOM     24  CG  GLN A   7     -50.553   2.454 -23.579  0.00  0.00    +0.087 C 
BRANCH  24  25
ATOM     25  CD  GLN A   7     -51.513   3.426 -22.930  0.00  0.00    +0.219 C 
ATOM     26  NE2 GLN A   7     -52.647   2.928 -22.446  0.00  0.00    -0.329 N 
ATOM     27 HE21 GLN A   7     -53.344   3.559 -22.001  0.00  0.00    +0.145 HD
ATOM     28 HE22 GLN A   7     -52.837   1.908 -22.512  0.00  0.00    +0.145 HD
ATOM     29  OE1 GLN A   7     -51.241   4.616 -22.878  0.00  0.00    -0.275 OA
ENDBRANCH  24  25
ENDBRANCH  23  24
ENDBRANCH  20  23
ENDBRANCH  17  20
ENDBRANCH  15  16
BRANCH  15  30
ATOM     30  CB  ILE A   6     -54.048  -1.048 -27.371  0.00  0.00    +0.027 C 
ATOM     31  CG2 ILE A   6     -52.849  -0.792 -28.275  0.00  0.00    +0.002 C 
BRANCH  30  32
ATOM     32  CG1 ILE A   6     -54.336  -2.556 -27.247  0.00  0.00    +0.002 C 
ATOM     33  CD1 ILE A   6     -53.276  -3.366 -26.524  0.00  0.00    +0.000 C 
ENDBRANCH  30  32
ENDBRANCH  15  30
ENDBRANCH  13  15
ENDBRANCH  10  11
BRANCH  10  34
ATOM     34  CB  LYS A   5     -57.423   0.678 -23.798  0.00  0.00    +0.029 C 
BRANCH  34  35
ATOM     35  CG  LYS A   5     -56.880   1.958 -24.367  0.00  0.00    +0.000 C 
BRANCH  35  36
ATOM     36  CD  LYS A   5     -56.554   2.976 -23.313  0.00  0.00    -0.024 C 
BRANCH  36  37
ATOM     37  CE  LYS A   5     -56.957   4.350 -23.809  0.00  0.00    -0.086 C 
BRANCH  37  38
ATOM     38  NZ  LYS A   5     -56.620   5.411 -22.836  0.00  0.00    +0.380 N 
ATOM     39  HZ1 LYS A   5     -57.117   5.229 -21.941  0.00  0.00    -0.089 HD
ATOM     40  HZ2 LYS A   5     -55.593   5.413 -22.669  0.00  0.00    -0.089 HD
ATOM     41  HZ3 LYS A   5     -56.913   6.334 -23.216  0.00  0.00    -0.089 HD
ENDBRANCH  37  38
ENDBRANCH  36  37
ENDBRANCH  35  36
ENDBRANCH  34  35
ENDBRANCH  10  34
ENDBRANCH   8  10
ENDBRANCH   5   6
BRANCH   5  42
ATOM     42  CB  ASP A   4     -55.353  -0.170 -19.117  0.00  0.00    +0.143 C 
BRANCH  42  43
ATOM     43  CG  ASP A   4     -54.952   1.264 -19.444  0.00  0.00    +0.367 C 
ATOM     44  OD2 ASP A   4     -55.768   2.190 -19.258  0.00  0.00    -0.246 OA
ATOM     45  OD1 ASP A   4     -53.817   1.469 -19.917  0.00  0.00    -0.246 OA
ENDBRANCH  42  43
ENDBRANCH   5  42
ENDBRANCH   3   5
BRANCH   1  46
ATOM     46  CA  ARG A   3     -57.768  -3.160 -16.938  0.00  0.00    +0.149 C 
BRANCH  46  48
ATOM     47  C   LEU A   2     -55.827  -4.588 -16.643  0.00  0.00    +0.241 C 
ATOM     48  N   ARG A   3     -56.619  -3.629 -16.177  0.00  0.00    -0.297 N 
ATOM     49  H   ARG A   3     -56.414  -3.205 -15.250  0.00  0.00    +0.150 HD
ATOM     50  O   LEU A   2     -56.081  -5.222 -17.667  0.00  0.00    -0.273 OA
BRANCH  47  51
ATOM     51  CA  LEU A   2     -54.574  -4.892 -15.817  0.00  0.00    +0.149 C 
BRANCH  51  53
ATOM     52  C   LYS A   1     -53.644  -2.672 -16.258  0.00  0.00    +0.238 C 
ATOM     53  N   LEU A   2     -53.916  -3.650 -15.390  0.00  0.00    -0.297 N 
ATOM     54  H   LEU A   2     -53.656  -3.530 -14.390  0.00  0.00    +0.150 HD
ATOM     55  O   LYS A   1     -53.947  -2.757 -17.439  0.00  0.00    -0.274 OA
BRANCH  52  56
ATOM     56  CA  LYS A   1     -52.975  -1.385 -15.754  0.00  0.00    +0.145 C 
BRANCH  56  57
ATOM     57  N   LYS A   1     -52.401  -0.748 -16.949  0.00  0.00    -0.238 NA
ATOM     58  H   LYS A   1     -52.862  -0.930 -17.863  0.00  0.00    +0.142 HD
ENDBRANCH  56  57
BRANCH  56  59
ATOM     59  CB  LYS A   1     -54.037  -0.500 -15.085  0.00  0.00    +0.026 C 
BRANCH  59  60
ATOM     60  CG  LYS A   1     -53.580   0.875 -14.624  0.00  0.00    -0.000 C 
BRANCH  60  61
ATOM     61  CD  LYS A   1     -52.692   0.795 -13.395  0.00  0.00    -0.024 C 
BRANCH  61  62
ATOM     62  CE  LYS A   1     -52.210   2.173 -12.975  0.00  0.00    -0.086 C 
BRANCH  62  63
ATOM     63  NZ  LYS A   1     -51.360   2.113 -11.755  0.00  0.00    +0.380 N 
ATOM     64  HZ1 LYS A   1     -51.909   1.705 -10.971  0.00  0.00    -0.089 HD
ATOM     65  HZ2 LYS A   1     -51.052   3.073 -11.501  0.00  0.00    -0.089 HD
ATOM     66  HZ3 LYS A   1     -50.528   1.518 -11.943  0.00  0.00    -0.089 HD
ENDBRANCH  62  63
ENDBRANCH  61  62
ENDBRANCH  60  61
ENDBRANCH  59  60
ENDBRANCH  56  59
ENDBRANCH  52  56
ENDBRANCH  51  53
BRANCH  51  67
ATOM     67  CB  LEU A   2     -54.948  -5.767 -14.610  0.00  0.00    +0.029 C 
BRANCH  67  68
ATOM     68  CG  LEU A   2     -54.700  -7.270 -14.772  0.00  0.00    +0.002 C 
ATOM     69  CD2 LEU A   2     -55.672  -8.075 -13.916  0.00  0.00    +0.000 C 
ATOM     70  CD1 LEU A   2     -54.782  -7.717 -16.222  0.00  0.00    +0.000 C 
ENDBRANCH  67  68
ENDBRANCH  51  67
ENDBRANCH  47  51
ENDBRANCH  46  48
BRANCH  46  71
ATOM     71  CB  ARG A   3     -59.051  -3.152 -16.104  0.00  0.00    +0.033 C 
BRANCH  71  72
ATOM     72  CG  ARG A   3     -59.904  -4.383 -16.354  0.00  0.00    +0.045 C 
BRANCH  72  73
ATOM     73  CD  ARG A   3     -61.284  -4.036 -16.885  0.00  0.00    +0.174 C 
BRANCH  73  74
ATOM     74  NE  ARG A   3     -62.321  -4.189 -15.875  0.00  0.00    -0.265 N 
ATOM     75  HE  ARG A   3     -62.035  -4.139 -14.876  0.00  0.00    +0.259 HD
ATOM     76  CZ  ARG A   3     -63.609  -4.388 -16.140  0.00  0.00    +0.342 C 
ATOM     77  NH2 ARG A   3     -64.471  -4.529 -15.141  0.00  0.00    -0.292 N 
ATOM     78 HH21 ARG A   3     -64.138  -4.484 -14.157  0.00  0.00    +0.255 HD
ATOM     79 HH22 ARG A   3     -65.479  -4.685 -15.342  0.00  0.00    +0.255 HD
ATOM     80  NH1 ARG A   3     -64.047  -4.453 -17.393  0.00  0.00    -0.292 N 
ATOM     81 HH11 ARG A   3     -65.057  -4.609 -17.583  0.00  0.00    +0.255 HD
ATOM     82 HH12 ARG A   3     -63.379  -4.348 -18.183  0.00  0.00    +0.255 HD
ENDBRANCH  73  74
ENDBRANCH  72  73
ENDBRANCH  71  72
ENDBRANCH  46  71
ENDBRANCH   1  46
TORSDOF 37
REMARK  Name = ../refined-set-2016/4crc/4crc_pocket.pdb
REMARK  228 active torsions:
REMARK  status: ('A' for Active; 'I' for Inactive)
REMARK    1  A    between atoms: _1  and  _5
REMARK    2  A    between atoms: _5  and  _6
REMARK    3  A    between atoms: _5  and  _8
REMARK    4  A    between atoms: _8  and  _9
REMARK    5  A    between atoms: _12  and  _14
REMARK    6  A    between atoms: _14  and  _15
REMARK    7  A    between atoms: _14  and  _17
REMARK    8  A    between atoms: _20  and  _22
REMARK    9  A    between atoms: _22  and  _23
REMARK   10  A    between atoms: _22  and  _25
REMARK   11  A    between atoms: _25  and  _26
REMARK   12  A    between atoms: _26  and  _27
REMARK   13  A    between atoms: _27  and  _28
REMARK   14  A    between atoms: _37  and  _39
REMARK   15  A    between atoms: _39  and  _40
REMARK   16  A    between atoms: _39  and  _42
REMARK   17  A    between atoms: _42  and  _43
REMARK   18  A    between atoms: _48  and  _50
REMARK   19  A    between atoms: _50  and  _51
REMARK   20  A    between atoms: _50  and  _53
REMARK   21  A    between atoms: _53  and  _54
REMARK   22  A    between atoms: _57  and  _59
REMARK   23  A    between atoms: _59  and  _60
REMARK   24  A    between atoms: _59  and  _62
REMARK   25  A    between atoms: _62  and  _63
REMARK   26  A    between atoms: _63  and  _98
REMARK   27  A    between atoms: _64  and  _66
REMARK   28  A    between atoms: _66  and  _67
REMARK   29  A    between atoms: _69  and  _71
REMARK   30  A    between atoms: _71  and  _72
REMARK   31  A    between atoms: _75  and  _77
REMARK   32  A    between atoms: _77  and  _78
REMARK   33  A    between atoms: _81  and  _83
REMARK   34  A    between atoms: _83  and  _84
REMARK   35  A    between atoms: _83  and  _86
REMARK   36  A    between atoms: _86  and  _87
REMARK   37  A    between atoms: _92  and  _94
REMARK   38  A    between atoms: _94  and  _95
REMARK   39  A    between atoms: _94  and  _97
REMARK   40  A    between atoms: _97  and  _98
REMARK   41  A    between atoms: _99  and  _101
REMARK   42  A    between atoms: _101  and  _102
REMARK   43  A    between atoms: _101  and  _104
REMARK   44  A    between atoms: _104  and  _105
REMARK   45  A    between atoms: _111  and  _113
REMARK   46  A    between atoms: _113  and  _114
REMARK   47  A    between atoms: _113  and  _116
REMARK   48  A    between atoms: _116  and  _117
REMARK   49  A    between atoms: _122  and  _123
REMARK   50  A    between atoms: _125  and  _127
REMARK   51  A    between atoms: _127  and  _128
REMARK   52  A    between atoms: _130  and  _132
REMARK   53  A    between atoms: _132  and  _133
REMARK   54  A    between atoms: _132  and  _135
REMARK   55  A    between atoms: _138  and  _140
REMARK   56  A    between atoms: _140  and  _141
REMARK   57  A    between atoms: _140  and  _143
REMARK   58  A    between atoms: _143  and  _144
REMARK   59  A    between atoms: _149  and  _150
REMARK   60  A    between atoms: _152  and  _154
REMARK   61  A    between atoms: _154  and  _155
REMARK   62  A    between atoms: _158  and  _160
REMARK   63  A    between atoms: _160  and  _161
REMARK   64  A    between atoms: _160  and  _163
REMARK   65  A    between atoms: _163  and  _164
REMARK   66  A    between atoms: _164  and  _165
REMARK   67  A    between atoms: _168  and  _170
REMARK   68  A    between atoms: _170  and  _171
REMARK   69  A    between atoms: _170  and  _173
REMARK   70  A    between atoms: _173  and  _174
REMARK   71  A    between atoms: _177  and  _179
REMARK   72  A    between atoms: _179  and  _180
REMARK   73  A    between atoms: _179  and  _182
REMARK   74  A    between atoms: _185  and  _187
REMARK   75  A    between atoms: _187  and  _188
REMARK   76  A    between atoms: _187  and  _190
REMARK   77  A    between atoms: _190  and  _191
REMARK   78  A    between atoms: _201  and  _203
REMARK   79  A    between atoms: _203  and  _204
REMARK   80  A    between atoms: _206  and  _208
REMARK   81  A    between atoms: _208  and  _209
REMARK   82  A    between atoms: _208  and  _211
REMARK   83  A    between atoms: _211  and  _212
REMARK   84  A    between atoms: _217  and  _218
REMARK   85  A    between atoms: _220  and  _222
REMARK   86  A    between atoms: _222  and  _223
REMARK   87  A    between atoms: _222  and  _225
REMARK   88  A    between atoms: _225  and  _226
REMARK   89  A    between atoms: _226  and  _227
REMARK   90  A    between atoms: _227  and  _228
REMARK   91  A    between atoms: _228  and  _229
REMARK   92  A    between atoms: _233  and  _235
REMARK   93  A    between atoms: _235  and  _236
REMARK   94  A    between atoms: _235  and  _238
REMARK   95  A    between atoms: _238  and  _239
REMARK   96  A    between atoms: _242  and  _244
REMARK   97  A    between atoms: _244  and  _245
REMARK   98  A    between atoms: _244  and  _247
REMARK   99  A    between atoms: _247  and  _248
REMARK  100  A    between atoms: _248  and  _249
REMARK  101  A    between atoms: _249  and  _250
REMARK  102  A    between atoms: _259  and  _261
REMARK  103  A    between atoms: _261  and  _262
REMARK  104  A    between atoms: _261  and  _264
REMARK  105  A    between atoms: _264  and  _265
REMARK  106  A    between atoms: _268  and  _270
REMARK  107  A    between atoms: _270  and  _271
REMARK  108  A    between atoms: _270  and  _273
REMARK  109  A    between atoms: _273  and  _274
REMARK  110  A    between atoms: _274  and  _275
REMARK  111  A    between atoms: _275  and  _276
REMARK  112  A    between atoms: _276  and  _277
REMARK  113  A    between atoms: _281  and  _283
REMARK  114  A    between atoms: _283  and  _284
REMARK  115  A    between atoms: _283  and  _286
REMARK  116  A    between atoms: _286  and  _287
REMARK  117  A    between atoms: _290  and  _292
REMARK  118  A    between atoms: _292  and  _293
REMARK  119  A    between atoms: _292  and  _295
REMARK  120  A    between atoms: _295  and  _296
REMARK  121  A    between atoms: _296  and  _297
REMARK  122  A    between atoms: _302  and  _304
REMARK  123  A    between atoms: _304  and  _305
REMARK  124  A    between atoms: _304  and  _307
REMARK  125  A    between atoms: _307  and  _308
REMARK  126  A    between atoms: _311  and  _313
REMARK  127  A    between atoms: _313  and  _314
REMARK  128  A    between atoms: _313  and  _316
REMARK  129  A    between atoms: _316  and  _317
REMARK  130  A    between atoms: _322  and  _323
REMARK  131  A    between atoms: _325  and  _327
REMARK  132  A    between atoms: _327  and  _328
REMARK  133  A    between atoms: _327  and  _330
REMARK  134  A    between atoms: _330  and  _331
REMARK  135  A    between atoms: _334  and  _336
REMARK  136  A    between atoms: _336  and  _337
REMARK  137  A    between atoms: _336  and  _339
REMARK  138  A    between atoms: _341  and  _343
REMARK  139  A    between atoms: _343  and  _344
REMARK  140  A    between atoms: _347  and  _349
REMARK  141  A    between atoms: _349  and  _350
REMARK  142  A    between atoms: _349  and  _352
REMARK  143  A    between atoms: _352  and  _353
REMARK  144  A    between atoms: _356  and  _358
REMARK  145  A    between atoms: _358  and  _359
REMARK  146  A    between atoms: _362  and  _364
REMARK  147  A    between atoms: _364  and  _365
REMARK  148  A    between atoms: _364  and  _367
REMARK  149  A    between atoms: _367  and  _368
REMARK  150  A    between atoms: _368  and  _482
REMARK  151  A    between atoms: _369  and  _371
REMARK  152  A    between atoms: _371  and  _372
REMARK  153  A    between atoms: _371  and  _374
REMARK  154  A    between atoms: _374  and  _375
REMARK  155  A    between atoms: _375  and  _376
REMARK  156  A    between atoms: _376  and  _377
REMARK  157  A    between atoms: _377  and  _378
REMARK  158  A    between atoms: _382  and  _384
REMARK  159  A    between atoms: _384  and  _385
REMARK  160  A    between atoms: _387  and  _389
REMARK  161  A    between atoms: _389  and  _390
REMARK  162  A    between atoms: _389  and  _392
REMARK  163  A    between atoms: _392  and  _393
REMARK  164  A    between atoms: _396  and  _398
REMARK  165  A    between atoms: _398  and  _399
REMARK  166  A    between atoms: _398  and  _401
REMARK  167  A    between atoms: _401  and  _402
REMARK  168  A    between atoms: _404  and  _406
REMARK  169  A    between atoms: _406  and  _407
REMARK  170  A    between atoms: _409  and  _411
REMARK  171  A    between atoms: _411  and  _412
REMARK  172  A    between atoms: _414  and  _416
REMARK  173  A    between atoms: _416  and  _417
REMARK  174  A    between atoms: _416  and  _419
REMARK  175  A    between atoms: _419  and  _420
REMARK  176  A    between atoms: _423  and  _425
REMARK  177  A    between atoms: _425  and  _426
REMARK  178  A    between atoms: _425  and  _428
REMARK  179  A    between atoms: _428  and  _429
REMARK  180  A    between atoms: _432  and  _434
REMARK  181  A    between atoms: _434  and  _435
REMARK  182  A    between atoms: _434  and  _437
REMARK  183  A    between atoms: _437  and  _438
REMARK  184  A    between atoms: _440  and  _442
REMARK  185  A    between atoms: _442  and  _443
REMARK  186  A    between atoms: _442  and  _445
REMARK  187  A    between atoms: _445  and  _446
REMARK  188  A    between atoms: _456  and  _458
REMARK  189  A    between atoms: _458  and  _459
REMARK  190  A    between atoms: _461  and  _463
REMARK  191  A    between atoms: _463  and  _464
REMARK  192  A    between atoms: _463  and  _466
REMARK  193  A    between atoms: _466  and  _467
REMARK  194  A    between atoms: _467  and  _468
REMARK  195  A    between atoms: _471  and  _473
REMARK  196  A    between atoms: _473  and  _474
REMARK  197  A    between atoms: _476  and  _478
REMARK  198  A    between atoms: _478  and  _479
REMARK  199  A    between atoms: _478  and  _481
REMARK  200  A    between atoms: _481  and  _482
REMARK  201  A    between atoms: _483  and  _485
REMARK  202  A    between atoms: _485  and  _486
REMARK  203  A    between atoms: _489  and  _491
REMARK  204  A    between atoms: _491  and  _492
REMARK  205  A    between atoms: _491  and  _494
REMARK  206  A    between atoms: _494  and  _495
REMARK  207  A    between atoms: _495  and  _496
REMARK  208  A    between atoms: _501  and  _503
REMARK  209  A    between atoms: _503  and  _504
REMARK  210  A    between atoms: _503  and  _506
REMARK  211  A    between atoms: _506  and  _507
REMARK  212  A    between atoms: _507  and  _508
REMARK  213  A    between atoms: _508  and  _509
REMARK  214  A    between atoms: _519  and  _520
REMARK  215  A    between atoms: _525  and  _527
REMARK  216  A    between atoms: _527  and  _528
REMARK  217  A    between atoms: _530  and  _532
REMARK  218  A    between atoms: _532  and  _533
REMARK  219  A    between atoms: _532  and  _535
REMARK  220  A    between atoms: _538  and  _540
REMARK  221  A    between atoms: _540  and  _541
REMARK  222  A    between atoms: _540  and  _543
REMARK  223  A    between atoms: _543  and  _544
REMARK  224  A    between atoms: _549  and  _550
REMARK  225  A    between atoms: _552  and  _554
REMARK  226  A    between atoms: _554  and  _555
REMARK  227  A    between atoms: _554  and  _557
REMARK  228  A    between atoms: _557  and  _558
REMARK                            x       y       z     vdW  Elec       q    Type
REMARK                         _______ _______ _______ _____ _____    ______ ____
ROOT
ATOM      1  CA  ILE A   1     -37.111  -3.401 -14.779  0.00  0.00    +0.133 C 
ENDROOT
BRANCH   1   2
ATOM      2  N   ILE A   1     -36.685  -2.386 -15.739  0.00  0.00    -0.239 NA
ATOM      3  H   ILE A   1     -36.153  -2.672 -16.586  0.00  0.00    +0.142 HD
ENDBRANCH   1   2
BRANCH   1   4
ATOM      4  C   ILE A   1     -35.927  -4.297 -14.442  0.00  0.00    +0.224 C 
ATOM      5  O   ILE A   1     -35.188  -4.700 -15.338  0.00  0.00    -0.287 OA
ENDBRANCH   1   4
BRANCH   1   6
ATOM      6  CB  ILE A   1     -38.293  -4.233 -15.327  0.00  0.00    +0.023 C 
ATOM      7  CG2 ILE A   1     -38.772  -5.249 -14.300  0.00  0.00    +0.002 C 
BRANCH   6   8
ATOM      8  CG1 ILE A   1     -39.452  -3.302 -15.707  0.00  0.00    +0.002 C 
ATOM      9  CD1 ILE A   1     -40.757  -3.997 -16.033  0.00  0.00    +0.000 C 
ENDBRANCH   6   8
ENDBRANCH   1   6
TORSDOF 4
REMARK  Name = ../refined-set-2016/4crc/4crc_pocket.pdb
REMARK  228 active torsions:
REMARK  status: ('A' for Active; 'I' for Inactive)
REMARK    1  A    between atoms: _1  and  _5
REMARK    2  A    between atoms: _5  and  _6
REMARK    3  A    between atoms: _5  and  _8
REMARK    4  A    between atoms: _8  and  _9
REMARK    5  A    between atoms: _12  and  _14
REMARK    6  A    between atoms: _14  and  _15
REMARK    7  A    between atoms: _14  and  _17
REMARK    8  A    between atoms: _20  and  _22
REMARK    9  A    between atoms: _22  and  _23
REMARK   10  A    between atoms: _22  and  _25
REMARK   11  A    between atoms: _25  and  _26
REMARK   12  A    between atoms: _26  and  _27
REMARK   13  A    between atoms: _27  and  _28
REMARK   14  A    between atoms: _37  and  _39
REMARK   15  A    between atoms: _39  and  _40
REMARK   16  A    between atoms: _39  and  _42
REMARK   17  A    between atoms: _42  and  _43
REMARK   18  A    between atoms: _48  and  _50
REMARK   19  A    between atoms: _50  and  _51
REMARK   20  A    between atoms: _50  and  _53
REMARK   21  A    between atoms: _53  and  _54
REMARK   22  A    between atoms: _57  and  _59
REMARK   23  A    between atoms: _59  and  _60
REMARK   24  A    between atoms: _59  and  _62
REMARK   25  A    between atoms: _62  and  _63
REMARK   26  A    between atoms: _63  and  _98
REMARK   27  A    between atoms: _64  and  _66
REMARK   28  A    between atoms: _66  and  _67
REMARK   29  A    between atoms: _69  and  _71
REMARK   30  A    between atoms: _71  and  _72
REMARK   31  A    between atoms: _75  and  _77
REMARK   32  A    between atoms: _77  and  _78
REMARK   33  A    between atoms: _81  and  _83
REMARK   34  A    between atoms: _83  and  _84
REMARK   35  A    between atoms: _83  and  _86
REMARK   36  A    between atoms: _86  and  _87
REMARK   37  A    between atoms: _92  and  _94
REMARK   38  A    between atoms: _94  and  _95
REMARK   39  A    between atoms: _94  and  _97
REMARK   40  A    between atoms: _97  and  _98
REMARK   41  A    between atoms: _99  and  _101
REMARK   42  A    between atoms: _101  and  _102
REMARK   43  A    between atoms: _101  and  _104
REMARK   44  A    between atoms: _104  and  _105
REMARK   45  A    between atoms: _111  and  _113
REMARK   46  A    between atoms: _113  and  _114
REMARK   47  A    between atoms: _113  and  _116
REMARK   48  A    between atoms: _116  and  _117
REMARK   49  A    between atoms: _122  and  _123
REMARK   50  A    between atoms: _125  and  _127
REMARK   51  A    between atoms: _127  and  _128
REMARK   52  A    between atoms: _130  and  _132
REMARK   53  A    between atoms: _132  and  _133
REMARK   54  A    between atoms: _132  and  _135
REMARK   55  A    between atoms: _138  and  _140
REMARK   56  A    between atoms: _140  and  _141
REMARK   57  A    between atoms: _140  and  _143
REMARK   58  A    between atoms: _143  and  _144
REMARK   59  A    between atoms: _149  and  _150
REMARK   60  A    between atoms: _152  and  _154
REMARK   61  A    between atoms: _154  and  _155
REMARK   62  A    between atoms: _158  and  _160
REMARK   63  A    between atoms: _160  and  _161
REMARK   64  A    between atoms: _160  and  _163
REMARK   65  A    between atoms: _163  and  _164
REMARK   66  A    between atoms: _164  and  _165
REMARK   67  A    between atoms: _168  and  _170
REMARK   68  A    between atoms: _170  and  _171
REMARK   69  A    between atoms: _170  and  _173
REMARK   70  A    between atoms: _173  and  _174
REMARK   71  A    between atoms: _177  and  _179
REMARK   72  A    between atoms: _179  and  _180
REMARK   73  A    between atoms: _179  and  _182
REMARK   74  A    between atoms: _185  and  _187
REMARK   75  A    between atoms: _187  and  _188
REMARK   76  A    between atoms: _187  and  _190
REMARK   77  A    between atoms: _190  and  _191
REMARK   78  A    between atoms: _201  and  _203
REMARK   79  A    between atoms: _203  and  _204
REMARK   80  A    between atoms: _206  and  _208
REMARK   81  A    between atoms: _208  and  _209
REMARK   82  A    between atoms: _208  and  _211
REMARK   83  A    between atoms: _211  and  _212
REMARK   84  A    between atoms: _217  and  _218
REMARK   85  A    between atoms: _220  and  _222
REMARK   86  A    between atoms: _222  and  _223
REMARK   87  A    between atoms: _222  and  _225
REMARK   88  A    between atoms: _225  and  _226
REMARK   89  A    between atoms: _226  and  _227
REMARK   90  A    between atoms: _227  and  _228
REMARK   91  A    between atoms: _228  and  _229
REMARK   92  A    between atoms: _233  and  _235
REMARK   93  A    between atoms: _235  and  _236
REMARK   94  A    between atoms: _235  and  _238
REMARK   95  A    between atoms: _238  and  _239
REMARK   96  A    between atoms: _242  and  _244
REMARK   97  A    between atoms: _244  and  _245
REMARK   98  A    between atoms: _244  and  _247
REMARK   99  A    between atoms: _247  and  _248
REMARK  100  A    between atoms: _248  and  _249
REMARK  101  A    between atoms: _249  and  _250
REMARK  102  A    between atoms: _259  and  _261
REMARK  103  A    between atoms: _261  and  _262
REMARK  104  A    between atoms: _261  and  _264
REMARK  105  A    between atoms: _264  and  _265
REMARK  106  A    between atoms: _268  and  _270
REMARK  107  A    between atoms: _270  and  _271
REMARK  108  A    between atoms: _270  and  _273
REMARK  109  A    between atoms: _273  and  _274
REMARK  110  A    between atoms: _274  and  _275
REMARK  111  A    between atoms: _275  and  _276
REMARK  112  A    between atoms: _276  and  _277
REMARK  113  A    between atoms: _281  and  _283
REMARK  114  A    between atoms: _283  and  _284
REMARK  115  A    between atoms: _283  and  _286
REMARK  116  A    between atoms: _286  and  _287
REMARK  117  A    between atoms: _290  and  _292
REMARK  118  A    between atoms: _292  and  _293
REMARK  119  A    between atoms: _292  and  _295
REMARK  120  A    between atoms: _295  and  _296
REMARK  121  A    between atoms: _296  and  _297
REMARK  122  A    between atoms: _302  and  _304
REMARK  123  A    between atoms: _304  and  _305
REMARK  124  A    between atoms: _304  and  _307
REMARK  125  A    between atoms: _307  and  _308
REMARK  126  A    between atoms: _311  and  _313
REMARK  127  A    between atoms: _313  and  _314
REMARK  128  A    between atoms: _313  and  _316
REMARK  129  A    between atoms: _316  and  _317
REMARK  130  A    between atoms: _322  and  _323
REMARK  131  A    between atoms: _325  and  _327
REMARK  132  A    between atoms: _327  and  _328
REMARK  133  A    between atoms: _327  and  _330
REMARK  134  A    between atoms: _330  and  _331
REMARK  135  A    between atoms: _334  and  _336
REMARK  136  A    between atoms: _336  and  _337
REMARK  137  A    between atoms: _336  and  _339
REMARK  138  A    between atoms: _341  and  _343
REMARK  139  A    between atoms: _343  and  _344
REMARK  140  A    between atoms: _347  and  _349
REMARK  141  A    between atoms: _349  and  _350
REMARK  142  A    between atoms: _349  and  _352
REMARK  143  A    between atoms: _352  and  _353
REMARK  144  A    between atoms: _356  and  _358
REMARK  145  A    between atoms: _358  and  _359
REMARK  146  A    between atoms: _362  and  _364
REMARK  147  A    between atoms: _364  and  _365
REMARK  148  A    between atoms: _364  and  _367
REMARK  149  A    between atoms: _367  and  _368
REMARK  150  A    between atoms: _368  and  _482
REMARK  151  A    between atoms: _369  and  _371
REMARK  152  A    between atoms: _371  and  _372
REMARK  153  A    between atoms: _371  and  _374
REMARK  154  A    between atoms: _374  and  _375
REMARK  155  A    between atoms: _375  and  _376
REMARK  156  A    between atoms: _376  and  _377
REMARK  157  A    between atoms: _377  and  _378
REMARK  158  A    between atoms: _382  and  _384
REMARK  159  A    between atoms: _384  and  _385
REMARK  160  A    between atoms: _387  and  _389
REMARK  161  A    between atoms: _389  and  _390
REMARK  162  A    between atoms: _389  and  _392
REMARK  163  A    between atoms: _392  and  _393
REMARK  164  A    between atoms: _396  and  _398
REMARK  165  A    between atoms: _398  and  _399
REMARK  166  A    between atoms: _398  and  _401
REMARK  167  A    between atoms: _401  and  _402
REMARK  168  A    between atoms: _404  and  _406
REMARK  169  A    between atoms: _406  and  _407
REMARK  170  A    between atoms: _409  and  _411
REMARK  171  A    between atoms: _411  and  _412
REMARK  172  A    between atoms: _414  and  _416
REMARK  173  A    between atoms: _416  and  _417
REMARK  174  A    between atoms: _416  and  _419
REMARK  175  A    between atoms: _419  and  _420
REMARK  176  A    between atoms: _423  and  _425
REMARK  177  A    between atoms: _425  and  _426
REMARK  178  A    between atoms: _425  and  _428
REMARK  179  A    between atoms: _428  and  _429
REMARK  180  A    between atoms: _432  and  _434
REMARK  181  A    between atoms: _434  and  _435
REMARK  182  A    between atoms: _434  and  _437
REMARK  183  A    between atoms: _437  and  _438
REMARK  184  A    between atoms: _440  and  _442
REMARK  185  A    between atoms: _442  and  _443
REMARK  186  A    between atoms: _442  and  _445
REMARK  187  A    between atoms: _445  and  _446
REMARK  188  A    between atoms: _456  and  _458
REMARK  189  A    between atoms: _458  and  _459
REMARK  190  A    between atoms: _461  and  _463
REMARK  191  A    between atoms: _463  and  _464
REMARK  192  A    between atoms: _463  and  _466
REMARK  193  A    between atoms: _466  and  _467
REMARK  194  A    between atoms: _467  and  _468
REMARK  195  A    between atoms: _471  and  _473
REMARK  196  A    between atoms: _473  and  _474
REMARK  197  A    between atoms: _476  and  _478
REMARK  198  A    between atoms: _478  and  _479
REMARK  199  A    between atoms: _478  and  _481
REMARK  200  A    between atoms: _481  and  _482
REMARK  201  A    between atoms: _483  and  _485
REMARK  202  A    between atoms: _485  and  _486
REMARK  203  A    between atoms: _489  and  _491
REMARK  204  A    between atoms: _491  and  _492
REMARK  205  A    between atoms: _491  and  _494
REMARK  206  A    between atoms: _494  and  _495
REMARK  207  A    between atoms: _495  and  _496
REMARK  208  A    between atoms: _501  and  _503
REMARK  209  A    between atoms: _503  and  _504
REMARK  210  A    between atoms: _503  and  _506
REMARK  211  A    between atoms: _506  and  _507
REMARK  212  A    between atoms: _507  and  _508
REMARK  213  A    between atoms: _508  and  _509
REMARK  214  A    between atoms: _519  and  _520
REMARK  215  A    between atoms: _525  and  _527
REMARK  216  A    between atoms: _527  and  _528
REMARK  217  A    between atoms: _530  and  _532
REMARK  218  A    between atoms: _532  and  _533
REMARK  219  A    between atoms: _532  and  _535
REMARK  220  A    between atoms: _538  and  _540
REMARK  221  A    between atoms: _540  and  _541
REMARK  222  A    between atoms: _540  and  _543
REMARK  223  A    between atoms: _543  and  _544
REMARK  224  A    between atoms: _549  and  _550
REMARK  225  A    between atoms: _552  and  _554
REMARK  226  A    between atoms: _554  and  _555
REMARK  227  A    between atoms: _554  and  _557
REMARK  228  A    between atoms: _557  and  _558
REMARK                            x       y       z     vdW  Elec       q    Type
REMARK                         _______ _______ _______ _____ _____    ______ ____
ROOT
ATOM      1  CG  TYR A   1     -44.962 -17.488 -11.174  0.00  0.00    -0.020 A 
ATOM      2  CD2 TYR A   1     -43.989 -16.510 -11.347  0.00  0.00    -0.001 A 
ATOM      3  CE2 TYR A   1     -44.321 -15.245 -11.816  0.00  0.00    +0.036 A 
ATOM      4  CZ  TYR A   1     -45.637 -14.955 -12.126  0.00  0.00    +0.134 A 
ATOM      5  CE1 TYR A   1     -46.613 -15.911 -11.965  0.00  0.00    +0.036 A 
ATOM      6  CD1 TYR A   1     -46.270 -17.170 -11.499  0.00  0.00    -0.001 A 
ENDROOT
BRANCH   4   7
ATOM      7  OH  TYR A   1     -45.998 -13.708 -12.591  0.00  0.00    -0.506 OA
ATOM      8  HH  TYR A   1     -45.515 -13.519 -13.434  0.00  0.00    +0.292 HD
ENDBRANCH   4   7
BRANCH   1   9
ATOM      9  CB  TYR A   1     -44.608 -18.870 -10.668  0.00  0.00    +0.051 C 
BRANCH   9  10
ATOM     10  CA  TYR A   1     -44.948 -19.099  -9.190  0.00  0.00    +0.137 C 
BRANCH  10  11
ATOM     11  N   TYR A   1     -44.031 -18.343  -8.341  0.00  0.00    -0.239 NA
ATOM     12  H   TYR A   1     -43.041 -18.655  -8.276  0.00  0.00    +0.142 HD
ENDBRANCH  10  11
BRANCH  10  13
ATOM     13  C   TYR A   1     -44.887 -20.591  -8.872  0.00  0.00    +0.224 C 
ATOM     14  O   TYR A   1     -44.502 -21.396  -9.717  0.00  0.00    -0.287 OA
ENDBRANCH  10  13
ENDBRANCH   9  10
ENDBRANCH   1   9
TORSDOF 5
REMARK  Name = ../refined-set-2016/4crc/4crc_pocket.pdb
REMARK  228 active torsions:
REMARK  status: ('A' for Active; 'I' for Inactive)
REMARK    1  A    between atoms: _1  and  _5
REMARK    2  A    between atoms: _5  and  _6
REMARK    3  A    between atoms: _5  and  _8
REMARK    4  A    between atoms: _8  and  _9
REMARK    5  A    between atoms: _12  and  _14
REMARK    6  A    between atoms: _14  and  _15
REMARK    7  A    between atoms: _14  and  _17
REMARK    8  A    between atoms: _20  and  _22
REMARK    9  A    between atoms: _22  and  _23
REMARK   10  A    between atoms: _22  and  _25
REMARK   11  A    between atoms: _25  and  _26
REMARK   12  A    between atoms: _26  and  _27
REMARK   13  A    between atoms: _27  and  _28
REMARK   14  A    between atoms: _37  and  _39
REMARK   15  A    between atoms: _39  and  _40
REMARK   16  A    between atoms: _39  and  _42
REMARK   17  A    between atoms: _42  and  _43
REMARK   18  A    between atoms: _48  and  _50
REMARK   19  A    between atoms: _50  and  _51
REMARK   20  A    between atoms: _50  and  _53
REMARK   21  A    between atoms: _53  and  _54
REMARK   22  A    between atoms: _57  and  _59
REMARK   23  A    between atoms: _59  and  _60
REMARK   24  A    between atoms: _59  and  _62
REMARK   25  A    between atoms: _62  and  _63
REMARK   26  A    between atoms: _63  and  _98
REMARK   27  A    between atoms: _64  and  _66
REMARK   28  A    between atoms: _66  and  _67
REMARK   29  A    between atoms: _69  and  _71
REMARK   30  A    between atoms: _71  and  _72
REMARK   31  A    between atoms: _75  and  _77
REMARK   32  A    between atoms: _77  and  _78
REMARK   33  A    between atoms: _81  and  _83
REMARK   34  A    between atoms: _83  and  _84
REMARK   35  A    between atoms: _83  and  _86
REMARK   36  A    between atoms: _86  and  _87
REMARK   37  A    between atoms: _92  and  _94
REMARK   38  A    between atoms: _94  and  _95
REMARK   39  A    between atoms: _94  and  _97
REMARK   40  A    between atoms: _97  and  _98
REMARK   41  A    between atoms: _99  and  _101
REMARK   42  A    between atoms: _101  and  _102
REMARK   43  A    between atoms: _101  and  _104
REMARK   44  A    between atoms: _104  and  _105
REMARK   45  A    between atoms: _111  and  _113
REMARK   46  A    between atoms: _113  and  _114
REMARK   47  A    between atoms: _113  and  _116
REMARK   48  A    between atoms: _116  and  _117
REMARK   49  A    between atoms: _122  and  _123
REMARK   50  A    between atoms: _125  and  _127
REMARK   51  A    between atoms: _127  and  _128
REMARK   52  A    between atoms: _130  and  _132
REMARK   53  A    between atoms: _132  and  _133
REMARK   54  A    between atoms: _132  and  _135
REMARK   55  A    between atoms: _138  and  _140
REMARK   56  A    between atoms: _140  and  _141
REMARK   57  A    between atoms: _140  and  _143
REMARK   58  A    between atoms: _143  and  _144
REMARK   59  A    between atoms: _149  and  _150
REMARK   60  A    between atoms: _152  and  _154
REMARK   61  A    between atoms: _154  and  _155
REMARK   62  A    between atoms: _158  and  _160
REMARK   63  A    between atoms: _160  and  _161
REMARK   64  A    between atoms: _160  and  _163
REMARK   65  A    between atoms: _163  and  _164
REMARK   66  A    between atoms: _164  and  _165
REMARK   67  A    between atoms: _168  and  _170
REMARK   68  A    between atoms: _170  and  _171
REMARK   69  A    between atoms: _170  and  _173
REMARK   70  A    between atoms: _173  and  _174
REMARK   71  A    between atoms: _177  and  _179
REMARK   72  A    between atoms: _179  and  _180
REMARK   73  A    between atoms: _179  and  _182
REMARK   74  A    between atoms: _185  and  _187
REMARK   75  A    between atoms: _187  and  _188
REMARK   76  A    between atoms: _187  and  _190
REMARK   77  A    between atoms: _190  and  _191
REMARK   78  A    between atoms: _201  and  _203
REMARK   79  A    between atoms: _203  and  _204
REMARK   80  A    between atoms: _206  and  _208
REMARK   81  A    between atoms: _208  and  _209
REMARK   82  A    between atoms: _208  and  _211
REMARK   83  A    between atoms: _211  and  _212
REMARK   84  A    between atoms: _217  and  _218
REMARK   85  A    between atoms: _220  and  _222
REMARK   86  A    between atoms: _222  and  _223
REMARK   87  A    between atoms: _222  and  _225
REMARK   88  A    between atoms: _225  and  _226
REMARK   89  A    between atoms: _226  and  _227
REMARK   90  A    between atoms: _227  and  _228
REMARK   91  A    between atoms: _228  and  _229
REMARK   92  A    between atoms: _233  and  _235
REMARK   93  A    between atoms: _235  and  _236
REMARK   94  A    between atoms: _235  and  _238
REMARK   95  A    between atoms: _238  and  _239
REMARK   96  A    between atoms: _242  and  _244
REMARK   97  A    between atoms: _244  and  _245
REMARK   98  A    between atoms: _244  and  _247
REMARK   99  A    between atoms: _247  and  _248
REMARK  100  A    between atoms: _248  and  _249
REMARK  101  A    between atoms: _249  and  _250
REMARK  102  A    between atoms: _259  and  _261
REMARK  103  A    between atoms: _261  and  _262
REMARK  104  A    between atoms: _261  and  _264
REMARK  105  A    between atoms: _264  and  _265
REMARK  106  A    between atoms: _268  and  _270
REMARK  107  A    between atoms: _270  and  _271
REMARK  108  A    between atoms: _270  and  _273
REMARK  109  A    between atoms: _273  and  _274
REMARK  110  A    between atoms: _274  and  _275
REMARK  111  A    between atoms: _275  and  _276
REMARK  112  A    between atoms: _276  and  _277
REMARK  113  A    between atoms: _281  and  _283
REMARK  114  A    between atoms: _283  and  _284
REMARK  115  A    between atoms: _283  and  _286
REMARK  116  A    between atoms: _286  and  _287
REMARK  117  A    between atoms: _290  and  _292
REMARK  118  A    between atoms: _292  and  _293
REMARK  119  A    between atoms: _292  and  _295
REMARK  120  A    between atoms: _295  and  _296
REMARK  121  A    between atoms: _296  and  _297
REMARK  122  A    between atoms: _302  and  _304
REMARK  123  A    between atoms: _304  and  _305
REMARK  124  A    between atoms: _304  and  _307
REMARK  125  A    between atoms: _307  and  _308
REMARK  126  A    between atoms: _311  and  _313
REMARK  127  A    between atoms: _313  and  _314
REMARK  128  A    between atoms: _313  and  _316
REMARK  129  A    between atoms: _316  and  _317
REMARK  130  A    between atoms: _322  and  _323
REMARK  131  A    between atoms: _325  and  _327
REMARK  132  A    between atoms: _327  and  _328
REMARK  133  A    between atoms: _327  and  _330
REMARK  134  A    between atoms: _330  and  _331
REMARK  135  A    between atoms: _334  and  _336
REMARK  136  A    between atoms: _336  and  _337
REMARK  137  A    between atoms: _336  and  _339
REMARK  138  A    between atoms: _341  and  _343
REMARK  139  A    between atoms: _343  and  _344
REMARK  140  A    between atoms: _347  and  _349
REMARK  141  A    between atoms: _349  and  _350
REMARK  142  A    between atoms: _349  and  _352
REMARK  143  A    between atoms: _352  and  _353
REMARK  144  A    between atoms: _356  and  _358
REMARK  145  A    between atoms: _358  and  _359
REMARK  146  A    between atoms: _362  and  _364
REMARK  147  A    between atoms: _364  and  _365
REMARK  148  A    between atoms: _364  and  _367
REMARK  149  A    between atoms: _367  and  _368
REMARK  150  A    between atoms: _368  and  _482
REMARK  151  A    between atoms: _369  and  _371
REMARK  152  A    between atoms: _371  and  _372
REMARK  153  A    between atoms: _371  and  _374
REMARK  154  A    between atoms: _374  and  _375
REMARK  155  A    between atoms: _375  and  _376
REMARK  156  A    between atoms: _376  and  _377
REMARK  157  A    between atoms: _377  and  _378
REMARK  158  A    between atoms: _382  and  _384
REMARK  159  A    between atoms: _384  and  _385
REMARK  160  A    between atoms: _387  and  _389
REMARK  161  A    between atoms: _389  and  _390
REMARK  162  A    between atoms: _389  and  _392
REMARK  163  A    between atoms: _392  and  _393
REMARK  164  A    between atoms: _396  and  _398
REMARK  165  A    between atoms: _398  and  _399
REMARK  166  A    between atoms: _398  and  _401
REMARK  167  A    between atoms: _401  and  _402
REMARK  168  A    between atoms: _404  and  _406
REMARK  169  A    between atoms: _406  and  _407
REMARK  170  A    between atoms: _409  and  _411
REMARK  171  A    between atoms: _411  and  _412
REMARK  172  A    between atoms: _414  and  _416
REMARK  173  A    between atoms: _416  and  _417
REMARK  174  A    between atoms: _416  and  _419
REMARK  175  A    between atoms: _419  and  _420
REMARK  176  A    between atoms: _423  and  _425
REMARK  177  A    between atoms: _425  and  _426
REMARK  178  A    between atoms: _425  and  _428
REMARK  179  A    between atoms: _428  and  _429
REMARK  180  A    between atoms: _432  and  _434
REMARK  181  A    between atoms: _434  and  _435
REMARK  182  A    between atoms: _434  and  _437
REMARK  183  A    between atoms: _437  and  _438
REMARK  184  A    between atoms: _440  and  _442
REMARK  185  A    between atoms: _442  and  _443
REMARK  186  A    between atoms: _442  and  _445
REMARK  187  A    between atoms: _445  and  _446
REMARK  188  A    between atoms: _456  and  _458
REMARK  189  A    between atoms: _458  and  _459
REMARK  190  A    between atoms: _461  and  _463
REMARK  191  A    between atoms: _463  and  _464
REMARK  192  A    between atoms: _463  and  _466
REMARK  193  A    between atoms: _466  and  _467
REMARK  194  A    between atoms: _467  and  _468
REMARK  195  A    between atoms: _471  and  _473
REMARK  196  A    between atoms: _473  and  _474
REMARK  197  A    between atoms: _476  and  _478
REMARK  198  A    between atoms: _478  and  _479
REMARK  199  A    between atoms: _478  and  _481
REMARK  200  A    between atoms: _481  and  _482
REMARK  201  A    between atoms: _483  and  _485
REMARK  202  A    between atoms: _485  and  _486
REMARK  203  A    between atoms: _489  and  _491
REMARK  204  A    between atoms: _491  and  _492
REMARK  205  A    between atoms: _491  and  _494
REMARK  206  A    between atoms: _494  and  _495
REMARK  207  A    between atoms: _495  and  _496
REMARK  208  A    between atoms: _501  and  _503
REMARK  209  A    between atoms: _503  and  _504
REMARK  210  A    between atoms: _503  and  _506
REMARK  211  A    between atoms: _506  and  _507
REMARK  212  A    between atoms: _507  and  _508
REMARK  213  A    between atoms: _508  and  _509
REMARK  214  A    between atoms: _519  and  _520
REMARK  215  A    between atoms: _525  and  _527
REMARK  216  A    between atoms: _527  and  _528
REMARK  217  A    between atoms: _530  and  _532
REMARK  218  A    between atoms: _532  and  _533
REMARK  219  A    between atoms: _532  and  _535
REMARK  220  A    between atoms: _538  and  _540
REMARK  221  A    between atoms: _540  and  _541
REMARK  222  A    between atoms: _540  and  _543
REMARK  223  A    between atoms: _543  and  _544
REMARK  224  A    between atoms: _549  and  _550
REMARK  225  A    between atoms: _552  and  _554
REMARK  226  A    between atoms: _554  and  _555
REMARK  227  A    between atoms: _554  and  _557
REMARK  228  A    between atoms: _557  and  _558
REMARK                            x       y       z     vdW  Elec       q    Type
REMARK                         _______ _______ _______ _____ _____    ______ ____
ROOT
ATOM      1  C   ILE A   1     -37.198 -14.372 -16.898  0.00  0.00    +0.238 C 
ATOM      2  N   CYS A   2     -37.038 -13.930 -15.654  0.00  0.00    -0.297 N 
ATOM      3  H   CYS A   2     -36.162 -14.169 -15.146  0.00  0.00    +0.150 HD
ATOM      4  O   ILE A   1     -38.192 -14.132 -17.588  0.00  0.00    -0.274 OA
ENDROOT
BRANCH   1   5
ATOM      5  CA  ILE A   1     -36.097 -15.284 -17.434  0.00  0.00    +0.145 C 
BRANCH   5   6
ATOM      6  N   ILE A   1     -36.744 -16.280 -18.270  0.00  0.00    -0.238 NA
ATOM      7  H   ILE A   1     -37.494 -15.979 -18.925  0.00  0.00    +0.142 HD
ENDBRANCH   5   6
BRANCH   5   8
ATOM      8  CB  ILE A   1     -34.992 -14.529 -18.208  0.00  0.00    +0.025 C 
ATOM      9  CG2 ILE A   1     -35.567 -13.670 -19.327  0.00  0.00    +0.002 C 
BRANCH   8  10
ATOM     10  CG1 ILE A   1     -34.133 -13.699 -17.254  0.00  0.00    +0.002 C 
ATOM     11  CD1 ILE A   1     -32.830 -13.245 -17.869  0.00  0.00    +0.000 C 
ENDBRANCH   8  10
ENDBRANCH   5   8
ENDBRANCH   1   5
BRANCH   2  12
ATOM     12  CA  CYS A   2     -38.048 -13.120 -14.973  0.00  0.00    +0.160 C 
BRANCH  12  13
ATOM     13  C   CYS A   2     -37.509 -11.730 -14.645  0.00  0.00    +0.242 C 
ATOM     14  O   CYS A   2     -36.302 -11.541 -14.463  0.00  0.00    -0.273 OA
ATOM     15  N   ALA A   3     -38.417 -10.762 -14.578  0.00  0.00    -0.298 N 
ATOM     16  H   ALA A   3     -39.415 -10.995 -14.758  0.00  0.00    +0.150 HD
BRANCH  15  17
ATOM     17  CA  ALA A   3     -38.061  -9.384 -14.261  0.00  0.00    +0.137 C 
ATOM     18  CB  ALA A   3     -37.717  -8.621 -15.528  0.00  0.00    +0.030 C 
BRANCH  17  19
ATOM     19  C   ALA A   3     -39.202  -8.705 -13.519  0.00  0.00    +0.227 C 
ATOM     20  O   ALA A   3     -40.375  -8.903 -13.840  0.00  0.00    -0.286 OA
ENDBRANCH  17  19
ENDBRANCH  15  17
ENDBRANCH  12  13
BRANCH  12  21
ATOM     21  CB  CYS A   2     -38.520 -13.819 -13.704  0.00  0.00    +0.098 C 
ATOM     22  SG  CYS A   2     -39.175 -15.482 -13.992  0.00  0.00    -0.080 S 
ENDBRANCH  12  21
ENDBRANCH   2  12
TORSDOF 9
REMARK  Name = ../refined-set-2016/4crc/4crc_pocket.pdb
REMARK  228 active torsions:
REMARK  status: ('A' for Active; 'I' for Inactive)
REMARK    1  A    between atoms: _1  and  _5
REMARK    2  A    between atoms: _5  and  _6
REMARK    3  A    between atoms: _5  and  _8
REMARK    4  A    between atoms: _8  and  _9
REMARK    5  A    between atoms: _12  and  _14
REMARK    6  A    between atoms: _14  and  _15
REMARK    7  A    between atoms: _14  and  _17
REMARK    8  A    between atoms: _20  and  _22
REMARK    9  A    between atoms: _22  and  _23
REMARK   10  A    between atoms: _22  and  _25
REMARK   11  A    between atoms: _25  and  _26
REMARK   12  A    between atoms: _26  and  _27
REMARK   13  A    between atoms: _27  and  _28
REMARK   14  A    between atoms: _37  and  _39
REMARK   15  A    between atoms: _39  and  _40
REMARK   16  A    between atoms: _39  and  _42
REMARK   17  A    between atoms: _42  and  _43
REMARK   18  A    between atoms: _48  and  _50
REMARK   19  A    between atoms: _50  and  _51
REMARK   20  A    between atoms: _50  and  _53
REMARK   21  A    between atoms: _53  and  _54
REMARK   22  A    between atoms: _57  and  _59
REMARK   23  A    between atoms: _59  and  _60
REMARK   24  A    between atoms: _59  and  _62
REMARK   25  A    between atoms: _62  and  _63
REMARK   26  A    between atoms: _63  and  _98
REMARK   27  A    between atoms: _64  and  _66
REMARK   28  A    between atoms: _66  and  _67
REMARK   29  A    between atoms: _69  and  _71
REMARK   30  A    between atoms: _71  and  _72
REMARK   31  A    between atoms: _75  and  _77
REMARK   32  A    between atoms: _77  and  _78
REMARK   33  A    between atoms: _81  and  _83
REMARK   34  A    between atoms: _83  and  _84
REMARK   35  A    between atoms: _83  and  _86
REMARK   36  A    between atoms: _86  and  _87
REMARK   37  A    between atoms: _92  and  _94
REMARK   38  A    between atoms: _94  and  _95
REMARK   39  A    between atoms: _94  and  _97
REMARK   40  A    between atoms: _97  and  _98
REMARK   41  A    between atoms: _99  and  _101
REMARK   42  A    between atoms: _101  and  _102
REMARK   43  A    between atoms: _101  and  _104
REMARK   44  A    between atoms: _104  and  _105
REMARK   45  A    between atoms: _111  and  _113
REMARK   46  A    between atoms: _113  and  _114
REMARK   47  A    between atoms: _113  and  _116
REMARK   48  A    between atoms: _116  and  _117
REMARK   49  A    between atoms: _122  and  _123
REMARK   50  A    between atoms: _125  and  _127
REMARK   51  A    between atoms: _127  and  _128
REMARK   52  A    between atoms: _130  and  _132
REMARK   53  A    between atoms: _132  and  _133
REMARK   54  A    between atoms: _132  and  _135
REMARK   55  A    between atoms: _138  and  _140
REMARK   56  A    between atoms: _140  and  _141
REMARK   57  A    between atoms: _140  and  _143
REMARK   58  A    between atoms: _143  and  _144
REMARK   59  A    between atoms: _149  and  _150
REMARK   60  A    between atoms: _152  and  _154
REMARK   61  A    between atoms: _154  and  _155
REMARK   62  A    between atoms: _158  and  _160
REMARK   63  A    between atoms: _160  and  _161
REMARK   64  A    between atoms: _160  and  _163
REMARK   65  A    between atoms: _163  and  _164
REMARK   66  A    between atoms: _164  and  _165
REMARK   67  A    between atoms: _168  and  _170
REMARK   68  A    between atoms: _170  and  _171
REMARK   69  A    between atoms: _170  and  _173
REMARK   70  A    between atoms: _173  and  _174
REMARK   71  A    between atoms: _177  and  _179
REMARK   72  A    between atoms: _179  and  _180
REMARK   73  A    between atoms: _179  and  _182
REMARK   74  A    between atoms: _185  and  _187
REMARK   75  A    between atoms: _187  and  _188
REMARK   76  A    between atoms: _187  and  _190
REMARK   77  A    between atoms: _190  and  _191
REMARK   78  A    between atoms: _201  and  _203
REMARK   79  A    between atoms: _203  and  _204
REMARK   80  A    between atoms: _206  and  _208
REMARK   81  A    between atoms: _208  and  _209
REMARK   82  A    between atoms: _208  and  _211
REMARK   83  A    between atoms: _211  and  _212
REMARK   84  A    between atoms: _217  and  _218
REMARK   85  A    between atoms: _220  and  _222
REMARK   86  A    between atoms: _222  and  _223
REMARK   87  A    between atoms: _222  and  _225
REMARK   88  A    between atoms: _225  and  _226
REMARK   89  A    between atoms: _226  and  _227
REMARK   90  A    between atoms: _227  and  _228
REMARK   91  A    between atoms: _228  and  _229
REMARK   92  A    between atoms: _233  and  _235
REMARK   93  A    between atoms: _235  and  _236
REMARK   94  A    between atoms: _235  and  _238
REMARK   95  A    between atoms: _238  and  _239
REMARK   96  A    between atoms: _242  and  _244
REMARK   97  A    between atoms: _244  and  _245
REMARK   98  A    between atoms: _244  and  _247
REMARK   99  A    between atoms: _247  and  _248
REMARK  100  A    between atoms: _248  and  _249
REMARK  101  A    between atoms: _249  and  _250
REMARK  102  A    between atoms: _259  and  _261
REMARK  103  A    between atoms: _261  and  _262
REMARK  104  A    between atoms: _261  and  _264
REMARK  105  A    between atoms: _264  and  _265
REMARK  106  A    between atoms: _268  and  _270
REMARK  107  A    between atoms: _270  and  _271
REMARK  108  A    between atoms: _270  and  _273
REMARK  109  A    between atoms: _273  and  _274
REMARK  110  A    between atoms: _274  and  _275
REMARK  111  A    between atoms: _275  and  _276
REMARK  112  A    between atoms: _276  and  _277
REMARK  113  A    between atoms: _281  and  _283
REMARK  114  A    between atoms: _283  and  _284
REMARK  115  A    between atoms: _283  and  _286
REMARK  116  A    between atoms: _286  and  _287
REMARK  117  A    between atoms: _290  and  _292
REMARK  118  A    between atoms: _292  and  _293
REMARK  119  A    between atoms: _292  and  _295
REMARK  120  A    between atoms: _295  and  _296
REMARK  121  A    between atoms: _296  and  _297
REMARK  122  A    between atoms: _302  and  _304
REMARK  123  A    between atoms: _304  and  _305
REMARK  124  A    between atoms: _304  and  _307
REMARK  125  A    between atoms: _307  and  _308
REMARK  126  A    between atoms: _311  and  _313
REMARK  127  A    between atoms: _313  and  _314
REMARK  128  A    between atoms: _313  and  _316
REMARK  129  A    between atoms: _316  and  _317
REMARK  130  A    between atoms: _322  and  _323
REMARK  131  A    between atoms: _325  and  _327
REMARK  132  A    between atoms: _327  and  _328
REMARK  133  A    between atoms: _327  and  _330
REMARK  134  A    between atoms: _330  and  _331
REMARK  135  A    between atoms: _334  and  _336
REMARK  136  A    between atoms: _336  and  _337
REMARK  137  A    between atoms: _336  and  _339
REMARK  138  A    between atoms: _341  and  _343
REMARK  139  A    between atoms: _343  and  _344
REMARK  140  A    between atoms: _347  and  _349
REMARK  141  A    between atoms: _349  and  _350
REMARK  142  A    between atoms: _349  and  _352
REMARK  143  A    between atoms: _352  and  _353
REMARK  144  A    between atoms: _356  and  _358
REMARK  145  A    between atoms: _358  and  _359
REMARK  146  A    between atoms: _362  and  _364
REMARK  147  A    between atoms: _364  and  _365
REMARK  148  A    between atoms: _364  and  _367
REMARK  149  A    between atoms: _367  and  _368
REMARK  150  A    between atoms: _368  and  _482
REMARK  151  A    between atoms: _369  and  _371
REMARK  152  A    between atoms: _371  and  _372
REMARK  153  A    between atoms: _371  and  _374
REMARK  154  A    between atoms: _374  and  _375
REMARK  155  A    between atoms: _375  and  _376
REMARK  156  A    between atoms: _376  and  _377
REMARK  157  A    between atoms: _377  and  _378
REMARK  158  A    between atoms: _382  and  _384
REMARK  159  A    between atoms: _384  and  _385
REMARK  160  A    between atoms: _387  and  _389
REMARK  161  A    between atoms: _389  and  _390
REMARK  162  A    between atoms: _389  and  _392
REMARK  163  A    between atoms: _392  and  _393
REMARK  164  A    between atoms: _396  and  _398
REMARK  165  A    between atoms: _398  and  _399
REMARK  166  A    between atoms: _398  and  _401
REMARK  167  A    between atoms: _401  and  _402
REMARK  168  A    between atoms: _404  and  _406
REMARK  169  A    between atoms: _406  and  _407
REMARK  170  A    between atoms: _409  and  _411
REMARK  171  A    between atoms: _411  and  _412
REMARK  172  A    between atoms: _414  and  _416
REMARK  173  A    between atoms: _416  and  _417
REMARK  174  A    between atoms: _416  and  _419
REMARK  175  A    between atoms: _419  and  _420
REMARK  176  A    between atoms: _423  and  _425
REMARK  177  A    between atoms: _425  and  _426
REMARK  178  A    between atoms: _425  and  _428
REMARK  179  A    between atoms: _428  and  _429
REMARK  180  A    between atoms: _432  and  _434
REMARK  181  A    between atoms: _434  and  _435
REMARK  182  A    between atoms: _434  and  _437
REMARK  183  A    between atoms: _437  and  _438
REMARK  184  A    between atoms: _440  and  _442
REMARK  185  A    between atoms: _442  and  _443
REMARK  186  A    between atoms: _442  and  _445
REMARK  187  A    between atoms: _445  and  _446
REMARK  188  A    between atoms: _456  and  _458
REMARK  189  A    between atoms: _458  and  _459
REMARK  190  A    between atoms: _461  and  _463
REMARK  191  A    between atoms: _463  and  _464
REMARK  192  A    between atoms: _463  and  _466
REMARK  193  A    between atoms: _466  and  _467
REMARK  194  A    between atoms: _467  and  _468
REMARK  195  A    between atoms: _471  and  _473
REMARK  196  A    between atoms: _473  and  _474
REMARK  197  A    between atoms: _476  and  _478
REMARK  198  A    between atoms: _478  and  _479
REMARK  199  A    between atoms: _478  and  _481
REMARK  200  A    between atoms: _481  and  _482
REMARK  201  A    between atoms: _483  and  _485
REMARK  202  A    between atoms: _485  and  _486
REMARK  203  A    between atoms: _489  and  _491
REMARK  204  A    between atoms: _491  and  _492
REMARK  205  A    between atoms: _491  and  _494
REMARK  206  A    between atoms: _494  and  _495
REMARK  207  A    between atoms: _495  and  _496
REMARK  208  A    between atoms: _501  and  _503
REMARK  209  A    between atoms: _503  and  _504
REMARK  210  A    between atoms: _503  and  _506
REMARK  211  A    between atoms: _506  and  _507
REMARK  212  A    between atoms: _507  and  _508
REMARK  213  A    between atoms: _508  and  _509
REMARK  214  A    between atoms: _519  and  _520
REMARK  215  A    between atoms: _525  and  _527
REMARK  216  A    between atoms: _527  and  _528
REMARK  217  A    between atoms: _530  and  _532
REMARK  218  A    between atoms: _532  and  _533
REMARK  219  A    between atoms: _532  and  _535
REMARK  220  A    between atoms: _538  and  _540
REMARK  221  A    between atoms: _540  and  _541
REMARK  222  A    between atoms: _540  and  _543
REMARK  223  A    between atoms: _543  and  _544
REMARK  224  A    between atoms: _549  and  _550
REMARK  225  A    between atoms: _552  and  _554
REMARK  226  A    between atoms: _554  and  _555
REMARK  227  A    between atoms: _554  and  _557
REMARK  228  A    between atoms: _557  and  _558
REMARK                            x       y       z     vdW  Elec       q    Type
REMARK                         _______ _______ _______ _____ _____    ______ ____
ROOT
ATOM      1  CA  GLY A   8     -49.742  -7.013 -14.270  0.00  0.00    +0.160 C 
ENDROOT
BRANCH   1   2
ATOM      2  N   GLY A   8     -50.750  -7.959 -13.805  0.00  0.00    -0.296 N 
ATOM      3  H   GLY A   8     -51.541  -7.606 -13.230  0.00  0.00    +0.150 HD
ATOM      4  C   SER A   7     -50.694  -9.254 -14.089  0.00  0.00    +0.243 C 
ATOM      5  O   SER A   7     -49.778  -9.769 -14.744  0.00  0.00    -0.273 OA
BRANCH   4   6
ATOM      6  CA  SER A   7     -51.827 -10.104 -13.537  0.00  0.00    +0.176 C 
BRANCH   6   7
ATOM      7  N   SER A   7     -51.485 -11.518 -13.616  0.00  0.00    -0.295 N 
ATOM      8  C   ASP A   6     -50.513 -12.043 -12.878  0.00  0.00    +0.241 C 
ATOM      9  O   ASP A   6     -49.923 -11.421 -11.992  0.00  0.00    -0.273 OA
ATOM     10  H   SER A   7     -52.015 -12.132 -14.267  0.00  0.00    +0.150 HD
BRANCH   8  11
ATOM     11  CA  ASP A   6     -50.148 -13.483 -13.196  0.00  0.00    +0.149 C 
BRANCH  11  12
ATOM     12  N   ASP A   6     -48.845 -13.489 -13.860  0.00  0.00    -0.297 N 
ATOM     13  H   ASP A   6     -47.976 -13.530 -13.290  0.00  0.00    +0.150 HD
ATOM     14  C   GLY A   5     -48.762 -13.442 -15.190  0.00  0.00    +0.243 C 
ATOM     15  O   GLY A   5     -49.750 -13.506 -15.924  0.00  0.00    -0.273 OA
BRANCH  14  16
ATOM     16  CA  GLY A   5     -47.383 -13.315 -15.801  0.00  0.00    +0.176 C 
BRANCH  16  17
ATOM     17  N   GLY A   5     -47.461 -13.548 -17.247  0.00  0.00    -0.295 N 
ATOM     18  H   GLY A   5     -48.397 -13.631 -17.692  0.00  0.00    +0.150 HD
ATOM     19  C   LYS A   4     -46.375 -13.657 -18.009  0.00  0.00    +0.241 C 
ATOM     20  O   LYS A   4     -45.238 -13.445 -17.597  0.00  0.00    -0.273 OA
BRANCH  19  21
ATOM     21  CA  LYS A   4     -46.631 -14.077 -19.444  0.00  0.00    +0.153 C 
BRANCH  21  22
ATOM     22  N   LYS A   4     -45.474 -13.955 -20.340  0.00  0.00    -0.297 N 
ATOM     23  H   LYS A   4     -44.518 -13.904 -19.934  0.00  0.00    +0.150 HD
ATOM     24  C   SER A   3     -45.626 -13.909 -21.663  0.00  0.00    +0.243 C 
ATOM     25  O   SER A   3     -46.735 -13.927 -22.199  0.00  0.00    -0.273 OA
BRANCH  24  26
ATOM     26  CA  SER A   3     -44.369 -13.846 -22.543  0.00  0.00    +0.178 C 
BRANCH  26  27
ATOM     27  N   SER A   3     -43.616 -12.595 -22.411  0.00  0.00    -0.295 N 
ATOM     28  H   SER A   3     -43.288 -12.301 -21.469  0.00  0.00    +0.150 HD
ATOM     29  C   THR A   2     -43.339 -11.823 -23.462  0.00  0.00    +0.243 C 
ATOM     30  O   THR A   2     -43.833 -11.979 -24.570  0.00  0.00    -0.273 OA
BRANCH  29  31
ATOM     31  CA  THR A   2     -42.346 -10.694 -23.225  0.00  0.00    +0.176 C 
BRANCH  31  32
ATOM     32  N   THR A   2     -41.212 -10.817 -24.140  0.00  0.00    -0.295 N 
ATOM     33  C   ILE A   1     -40.469 -11.919 -24.225  0.00  0.00    +0.238 C 
ATOM     34  O   ILE A   1     -40.654 -12.909 -23.520  0.00  0.00    -0.274 OA
ATOM     35  H   THR A   2     -40.976 -10.009 -24.751  0.00  0.00    +0.150 HD
BRANCH  33  36
ATOM     36  CA  ILE A   1     -39.332 -11.900 -25.240  0.00  0.00    +0.145 C 
BRANCH  36  37
ATOM     37  N   ILE A   1     -38.088 -12.178 -24.530  0.00  0.00    -0.238 NA
ATOM     38  H   ILE A   1     -37.986 -13.098 -24.057  0.00  0.00    +0.142 HD
ENDBRANCH  36  37
BRANCH  36  39
ATOM     39  CB  ILE A   1     -39.627 -12.951 -26.331  0.00  0.00    +0.025 C 
ATOM     40  CG2 ILE A   1     -40.908 -12.606 -27.082  0.00  0.00    +0.002 C 
BRANCH  39  41
ATOM     41  CG1 ILE A   1     -38.469 -13.047 -27.325  0.00  0.00    +0.002 C 
ATOM     42  CD1 ILE A   1     -38.536 -14.235 -28.247  0.00  0.00    +0.000 C 
ENDBRANCH  39  41
ENDBRANCH  36  39
ENDBRANCH  33  36
ENDBRANCH  31  32
BRANCH  31  43
ATOM     43  CB  THR A   2     -43.009  -9.324 -23.426  0.00  0.00    +0.137 C 
ATOM     44  CG2 THR A   2     -44.168  -9.107 -22.440  0.00  0.00    +0.034 C 
BRANCH  43  45
ATOM     45  OG1 THR A   2     -42.005  -8.303 -23.263  0.00  0.00    -0.382 OA
ATOM     46  HG1 THR A   2     -42.418  -7.412 -23.390  0.00  0.00    +0.210 HD
ENDBRANCH  43  45
ENDBRANCH  31  43
ENDBRANCH  29  31
ENDBRANCH  26  27
BRANCH  26  47
ATOM     47  CB  SER A   3     -43.449 -15.044 -22.277  0.00  0.00    +0.166 C 
BRANCH  47  48
ATOM     48  OG  SER A   3     -44.118 -16.269 -22.542  0.00  0.00    -0.380 OA
ATOM     49  H   SER A   3     -44.402 -16.290 -23.490  0.00  0.00    +0.211 HD
ENDBRANCH  47  48
ENDBRANCH  26  47
ENDBRANCH  24  26
ENDBRANCH  21  22
BRANCH  21  50
ATOM     50  CB  LYS A   4     -47.142 -15.527 -19.434  0.00  0.00    +0.057 C 
BRANCH  50  51
ATOM     51  CG  LYS A   4     -46.169 -16.519 -18.858  0.00  0.00    -0.002 A 
ATOM     52  CD2 LYS A   4     -46.155 -17.040 -17.522  0.00  0.00    +0.013 A 
ATOM     53  CE3 LYS A   4     -46.951 -16.831 -16.394  0.00  0.00    +0.001 A 
ATOM     54  CZ3 LYS A   4     -46.643 -17.523 -15.227  0.00  0.00    +0.000 A 
ATOM     55  CH2 LYS A   4     -45.566 -18.413 -15.176  0.00  0.00    +0.001 A 
ATOM     56  CZ2 LYS A   4     -44.771 -18.640 -16.264  0.00  0.00    +0.017 A 
ATOM     57  CE2 LYS A   4     -45.079 -17.949 -17.437  0.00  0.00    +0.056 A 
ATOM     58  NE1 LYS A   4     -44.475 -17.983 -18.663  0.00  0.00    -0.352 N 
ATOM     59  HE1 LYS A   4     -43.651 -18.565 -18.916  0.00  0.00    +0.166 HD
ATOM     60  CD1 LYS A   4     -45.136 -17.121 -19.508  0.00  0.00    +0.068 A 
ENDBRANCH  50  51
ENDBRANCH  21  50
ENDBRANCH  19  21
ENDBRANCH  16  17
ENDBRANCH  14  16
ENDBRANCH  11  12
BRANCH  11  61
ATOM     61  CB  ASP A   6     -50.164 -14.348 -11.932  0.00  0.00    +0.041 C 
BRANCH  61  62
ATOM     62  CG  ASP A   6     -51.555 -14.483 -11.312  0.00  0.00    +0.116 C 
BRANCH  62  63
ATOM     63  CD  ASP A   6     -52.617 -14.906 -12.322  0.00  0.00    +0.365 C 
ATOM     64  OE2 ASP A   6     -53.577 -14.139 -12.564  0.00  0.00    -0.246 OA
ATOM     65  OE1 ASP A   6     -52.487 -16.004 -12.892  0.00  0.00    -0.246 OA
ENDBRANCH  62  63
ENDBRANCH  61  62
ENDBRANCH  11  61
ENDBRANCH   8  11
ENDBRANCH   6   7
ENDBRANCH   4   6
ENDBRANCH   1   2
BRANCH   1  66
ATOM     66  C   GLY A   8     -49.207  -6.164 -13.127  0.00  0.00    +0.242 C 
ATOM     67  O   GLY A   8     -49.973  -5.470 -12.457  0.00  0.00    -0.273 OA
ATOM     68  N   GLY A   9     -47.897  -6.247 -12.907  0.00  0.00    -0.297 N 
ATOM     69  H   GLY A   9     -47.348  -6.939 -13.456  0.00  0.00    +0.150 HD
BRANCH  68  70
ATOM     70  CA  GLY A   9     -47.189  -5.417 -11.935  0.00  0.00    +0.149 C 
ATOM     71  CB  GLY A   9     -47.370  -3.937 -12.274  0.00  0.00    +0.031 C 
BRANCH  70  72
ATOM     72  C   GLY A   9     -47.590  -5.687 -10.488  0.00  0.00    +0.241 C 
ATOM     73  O   GLY A   9     -47.425  -4.818  -9.634  0.00  0.00    -0.273 OA
ATOM     74  N   GLN A  10     -48.101  -6.886 -10.212  0.00  0.00    -0.298 N 
ATOM     75  H   GLN A  10     -48.192  -7.586 -10.976  0.00  0.00    +0.150 HD
BRANCH  74  76
ATOM     76  CA  GLN A  10     -48.538  -7.243  -8.861  0.00  0.00    +0.137 C 
BRANCH  76  77
ATOM     77  C   GLN A  10     -47.350  -7.521  -7.960  0.00  0.00    +0.227 C 
ATOM     78  O   GLN A  10     -46.284  -7.943  -8.416  0.00  0.00    -0.286 OA
ENDBRANCH  76  77
BRANCH  76  79
ATOM     79  CB  GLN A  10     -49.444  -8.479  -8.875  0.00  0.00    +0.037 C 
BRANCH  79  80
ATOM     80  CG  GLN A  10     -50.728  -8.302  -9.659  0.00  0.00    +0.087 C 
BRANCH  80  81
ATOM     81  CD  GLN A  10     -51.808  -9.281  -9.250  0.00  0.00    +0.219 C 
ATOM     82  OE1 GLN A  10     -52.692  -8.943  -8.465  0.00  0.00    -0.275 OA
ATOM     83  NE2 GLN A  10     -51.742 -10.497  -9.773  0.00  0.00    -0.329 N 
ATOM     84 HE21 GLN A  10     -52.457 -11.210  -9.523  0.00  0.00    +0.145 HD
ATOM     85 HE22 GLN A  10     -50.976 -10.738 -10.433  0.00  0.00    +0.145 HD
ENDBRANCH  80  81
ENDBRANCH  79  80
ENDBRANCH  76  79
ENDBRANCH  74  76
ENDBRANCH  70  72
ENDBRANCH  68  70
ENDBRANCH   1  66
BRANCH   1  86
ATOM     86  CB  GLY A   8     -50.346  -6.101 -15.327  0.00  0.00    +0.098 C 
BRANCH  86  87
ATOM     87  SG  GLY A   8     -50.935  -6.994 -16.769  0.00  0.00    -0.080 S 
BRANCH  87  88
ATOM     88  SG  SER A   3     -51.403  -5.449 -17.992  0.00  0.00    -0.080 S 
BRANCH  88  89
ATOM     89  CB  SER A   3     -49.846  -4.973 -18.804  0.00  0.00    +0.098 C 
BRANCH  89  90
ATOM     90  CA  SER A   3     -49.115  -6.113 -19.519  0.00  0.00    +0.160 C 
BRANCH  90  91
ATOM     91  C   SER A   3     -49.740  -6.417 -20.869  0.00  0.00    +0.242 C 
ATOM     92  N   LYS A   4     -51.061  -6.549 -20.901  0.00  0.00    -0.297 N 
ATOM     93  H   LYS A   4     -51.615  -6.307 -20.055  0.00  0.00    +0.150 HD
ATOM     94  O   SER A   3     -49.030  -6.536 -21.864  0.00  0.00    -0.273 OA
BRANCH  92  95
ATOM     95  CA  LYS A   4     -51.754  -7.024 -22.090  0.00  0.00    +0.149 C 
BRANCH  95  96
ATOM     96  C   LYS A   4     -51.432  -6.161 -23.298  0.00  0.00    +0.241 C 
ATOM     97  O   LYS A   4     -51.603  -4.951 -23.255  0.00  0.00    -0.273 OA
ATOM     98  N   GLY A   5     -50.968  -6.795 -24.368  0.00  0.00    -0.295 N 
ATOM     99  H   GLY A   5     -50.854  -7.828 -24.325  0.00  0.00    +0.150 HD
BRANCH  98 100
ATOM    100  CA  GLY A   5     -50.613  -6.106 -25.597  0.00  0.00    +0.176 C 
BRANCH 100 101
ATOM    101  C   GLY A   5     -49.116  -5.920 -25.758  0.00  0.00    +0.243 C 
ATOM    102  N   ASP A   6     -48.346  -6.215 -24.712  0.00  0.00    -0.296 N 
ATOM    103  H   ASP A   6     -48.794  -6.551 -23.836  0.00  0.00    +0.150 HD
ATOM    104  O   GLY A   5     -48.670  -5.512 -26.816  0.00  0.00    -0.273 OA
BRANCH 102 105
ATOM    105  CA  ASP A   6     -46.882  -6.081 -24.756  0.00  0.00    +0.160 C 
BRANCH 105 106
ATOM    106  C   ASP A   6     -46.221  -7.370 -25.214  0.00  0.00    +0.241 C 
ATOM    107  N   SER A   7     -46.932  -8.492 -25.147  0.00  0.00    -0.295 N 
ATOM    108  H   SER A   7     -47.939  -8.463 -24.887  0.00  0.00    +0.150 HD
ATOM    109  O   ASP A   6     -45.060  -7.361 -25.617  0.00  0.00    -0.273 OA
BRANCH 107 110
ATOM    110  CA  SER A   7     -46.280  -9.764 -25.443  0.00  0.00    +0.178 C 
BRANCH 110 111
ATOM    111  C   SER A   7     -45.724  -9.838 -26.861  0.00  0.00    +0.243 C 
ATOM    112  N   GLY A   8     -44.643 -10.605 -26.998  0.00  0.00    -0.295 N 
ATOM    113  H   GLY A   8     -44.312 -11.148 -26.175  0.00  0.00    +0.150 HD
ATOM    114  O   SER A   7     -46.226  -9.188 -27.787  0.00  0.00    -0.273 OA
BRANCH 112 115
ATOM    115  CA  GLY A   8     -43.900 -10.718 -28.253  0.00  0.00    +0.176 C 
BRANCH 115 116
ATOM    116  C   GLY A   8     -42.807  -9.677 -28.424  0.00  0.00    +0.243 C 
ATOM    117  N   GLY A   9     -42.934  -8.565 -27.709  0.00  0.00    -0.296 N 
ATOM    118  H   GLY A   9     -43.778  -8.447 -27.113  0.00  0.00    +0.150 HD
ATOM    119  O   GLY A   8     -41.882  -9.871 -29.213  0.00  0.00    -0.273 OA
BRANCH 117 120
ATOM    120  CA  GLY A   9     -41.940  -7.509 -27.727  0.00  0.00    +0.163 C 
BRANCH 120 121
ATOM    121  C   GLY A   9     -40.693  -7.833 -26.941  0.00  0.00    +0.229 C 
ATOM    122  O   GLY A   9     -40.595  -8.871 -26.282  0.00  0.00    -0.286 OA
ENDBRANCH 120 121
ENDBRANCH 117 120
ENDBRANCH 115 116
ENDBRANCH 112 115
ENDBRANCH 110 111
BRANCH 110 123
ATOM    123  CB  SER A   7     -47.187 -10.955 -25.174  0.00  0.00    +0.166 C 
BRANCH 123 124
ATOM    124  OG  SER A   7     -48.220 -11.044 -26.127  0.00  0.00    -0.380 OA
ATOM    125  H   SER A   7     -48.768 -10.220 -26.096  0.00  0.00    +0.211 HD
ENDBRANCH 123 124
ENDBRANCH 110 123
ENDBRANCH 107 110
ENDBRANCH 105 106
BRANCH 105 126
ATOM    126  CB  ASP A   6     -46.304  -5.690 -23.391  0.00  0.00    +0.143 C 
BRANCH 126 127
ATOM    127  CG  ASP A   6     -46.633  -4.264 -22.996  0.00  0.00    +0.367 C 
ATOM    128  OD2 ASP A   6     -46.938  -4.019 -21.808  0.00  0.00    -0.246 OA
ATOM    129  OD1 ASP A   6     -46.579  -3.383 -23.878  0.00  0.00    -0.246 OA
ENDBRANCH 126 127
ENDBRANCH 105 126
ENDBRANCH 102 105
ENDBRANCH 100 101
ENDBRANCH  98 100
ENDBRANCH  95  96
BRANCH  95 130
ATOM    130  CB  LYS A   4     -53.264  -7.042 -21.849  0.00  0.00    +0.029 C 
BRANCH 130 131
ATOM    131  CG  LYS A   4     -53.691  -8.027 -20.778  0.00  0.00    +0.000 C 
BRANCH 131 132
ATOM    132  CD  LYS A   4     -55.195  -8.250 -20.754  0.00  0.00    -0.024 C 
BRANCH 132 133
ATOM    133  CE  LYS A   4     -55.560  -9.195 -19.619  0.00  0.00    -0.086 C 
BRANCH 133 134
ATOM    134  NZ  LYS A   4     -57.014  -9.480 -19.505  0.00  0.00    +0.380 N 
ATOM    135  HZ1 LYS A   4     -57.177 -10.130 -18.710  0.00  0.00    -0.089 HD
ATOM    136  HZ2 LYS A   4     -57.528  -8.591 -19.339  0.00  0.00    -0.089 HD
ATOM    137  HZ3 LYS A   4     -57.350  -9.918 -20.386  0.00  0.00    -0.089 HD
ENDBRANCH 133 134
ENDBRANCH 132 133
ENDBRANCH 131 132
ENDBRANCH 130 131
ENDBRANCH  95 130
ENDBRANCH  92  95
ENDBRANCH  90  91
BRANCH  90 140
ATOM    138  C   THR A   2     -46.820  -6.004 -18.753  0.00  0.00    +0.241 C 
ATOM    139  O   THR A   2     -47.150  -6.418 -17.637  0.00  0.00    -0.273 OA
ATOM    140  N   SER A   3     -47.708  -5.791 -19.714  0.00  0.00    -0.296 N 
ATOM    141  H   SER A   3     -47.395  -5.388 -20.620  0.00  0.00    +0.150 HD
BRANCH 138 142
ATOM    142  CA  THR A   2     -45.355  -5.691 -19.082  0.00  0.00    +0.149 C 
ATOM    143  CB  THR A   2     -44.775  -6.753 -19.999  0.00  0.00    +0.031 C 
BRANCH 142 146
ATOM    144  C   ILE A   1     -44.717  -4.584 -17.032  0.00  0.00    +0.239 C 
ATOM    145  O   ILE A   1     -45.213  -3.518 -17.387  0.00  0.00    -0.274 OA
ATOM    146  N   THR A   2     -44.595  -5.623 -17.844  0.00  0.00    -0.297 N 
ATOM    147  H   THR A   2     -43.949  -6.399 -17.594  0.00  0.00    +0.150 HD
BRANCH 144 148
ATOM    148  CA  ILE A   1     -44.233  -4.781 -15.611  0.00  0.00    +0.156 C 
BRANCH 148 149
ATOM    149  N   ILE A   1     -44.078  -3.470 -14.980  0.00  0.00    -0.238 NA
ATOM    150  H   ILE A   1     -44.456  -2.627 -15.458  0.00  0.00    +0.142 HD
ENDBRANCH 148 149
BRANCH 148 151
ATOM    151  CB  ILE A   1     -45.284  -5.587 -14.832  0.00  0.00    +0.140 C 
BRANCH 151 152
ATOM    152  CG  ILE A   1     -45.242  -7.090 -15.106  0.00  0.00    +0.367 C 
ATOM    153  OD2 ILE A   1     -46.081  -7.788 -14.494  0.00  0.00    -0.246 OA
ATOM    154  OD1 ILE A   1     -44.418  -7.584 -15.909  0.00  0.00    -0.246 OA
ENDBRANCH 151 152
ENDBRANCH 148 151
ENDBRANCH 144 148
ENDBRANCH 142 146
ENDBRANCH 138 142
ENDBRANCH  90 140
ENDBRANCH  89  90
ENDBRANCH  88  89
ENDBRANCH  87  88
ENDBRANCH  86  87
ENDBRANCH   1  86
TORSDOF 68
REMARK  Name = ../refined-set-2016/4crc/4crc_pocket.pdb
REMARK  228 active torsions:
REMARK  status: ('A' for Active; 'I' for Inactive)
REMARK    1  A    between atoms: _1  and  _5
REMARK    2  A    between atoms: _5  and  _6
REMARK    3  A    between atoms: _5  and  _8
REMARK    4  A    between atoms: _8  and  _9
REMARK    5  A    between atoms: _12  and  _14
REMARK    6  A    between atoms: _14  and  _15
REMARK    7  A    between atoms: _14  and  _17
REMARK    8  A    between atoms: _20  and  _22
REMARK    9  A    between atoms: _22  and  _23
REMARK   10  A    between atoms: _22  and  _25
REMARK   11  A    between atoms: _25  and  _26
REMARK   12  A    between atoms: _26  and  _27
REMARK   13  A    between atoms: _27  and  _28
REMARK   14  A    between atoms: _37  and  _39
REMARK   15  A    between atoms: _39  and  _40
REMARK   16  A    between atoms: _39  and  _42
REMARK   17  A    between atoms: _42  and  _43
REMARK   18  A    between atoms: _48  and  _50
REMARK   19  A    between atoms: _50  and  _51
REMARK   20  A    between atoms: _50  and  _53
REMARK   21  A    between atoms: _53  and  _54
REMARK   22  A    between atoms: _57  and  _59
REMARK   23  A    between atoms: _59  and  _60
REMARK   24  A    between atoms: _59  and  _62
REMARK   25  A    between atoms: _62  and  _63
REMARK   26  A    between atoms: _63  and  _98
REMARK   27  A    between atoms: _64  and  _66
REMARK   28  A    between atoms: _66  and  _67
REMARK   29  A    between atoms: _69  and  _71
REMARK   30  A    between atoms: _71  and  _72
REMARK   31  A    between atoms: _75  and  _77
REMARK   32  A    between atoms: _77  and  _78
REMARK   33  A    between atoms: _81  and  _83
REMARK   34  A    between atoms: _83  and  _84
REMARK   35  A    between atoms: _83  and  _86
REMARK   36  A    between atoms: _86  and  _87
REMARK   37  A    between atoms: _92  and  _94
REMARK   38  A    between atoms: _94  and  _95
REMARK   39  A    between atoms: _94  and  _97
REMARK   40  A    between atoms: _97  and  _98
REMARK   41  A    between atoms: _99  and  _101
REMARK   42  A    between atoms: _101  and  _102
REMARK   43  A    between atoms: _101  and  _104
REMARK   44  A    between atoms: _104  and  _105
REMARK   45  A    between atoms: _111  and  _113
REMARK   46  A    between atoms: _113  and  _114
REMARK   47  A    between atoms: _113  and  _116
REMARK   48  A    between atoms: _116  and  _117
REMARK   49  A    between atoms: _122  and  _123
REMARK   50  A    between atoms: _125  and  _127
REMARK   51  A    between atoms: _127  and  _128
REMARK   52  A    between atoms: _130  and  _132
REMARK   53  A    between atoms: _132  and  _133
REMARK   54  A    between atoms: _132  and  _135
REMARK   55  A    between atoms: _138  and  _140
REMARK   56  A    between atoms: _140  and  _141
REMARK   57  A    between atoms: _140  and  _143
REMARK   58  A    between atoms: _143  and  _144
REMARK   59  A    between atoms: _149  and  _150
REMARK   60  A    between atoms: _152  and  _154
REMARK   61  A    between atoms: _154  and  _155
REMARK   62  A    between atoms: _158  and  _160
REMARK   63  A    between atoms: _160  and  _161
REMARK   64  A    between atoms: _160  and  _163
REMARK   65  A    between atoms: _163  and  _164
REMARK   66  A    between atoms: _164  and  _165
REMARK   67  A    between atoms: _168  and  _170
REMARK   68  A    between atoms: _170  and  _171
REMARK   69  A    between atoms: _170  and  _173
REMARK   70  A    between atoms: _173  and  _174
REMARK   71  A    between atoms: _177  and  _179
REMARK   72  A    between atoms: _179  and  _180
REMARK   73  A    between atoms: _179  and  _182
REMARK   74  A    between atoms: _185  and  _187
REMARK   75  A    between atoms: _187  and  _188
REMARK   76  A    between atoms: _187  and  _190
REMARK   77  A    between atoms: _190  and  _191
REMARK   78  A    between atoms: _201  and  _203
REMARK   79  A    between atoms: _203  and  _204
REMARK   80  A    between atoms: _206  and  _208
REMARK   81  A    between atoms: _208  and  _209
REMARK   82  A    between atoms: _208  and  _211
REMARK   83  A    between atoms: _211  and  _212
REMARK   84  A    between atoms: _217  and  _218
REMARK   85  A    between atoms: _220  and  _222
REMARK   86  A    between atoms: _222  and  _223
REMARK   87  A    between atoms: _222  and  _225
REMARK   88  A    between atoms: _225  and  _226
REMARK   89  A    between atoms: _226  and  _227
REMARK   90  A    between atoms: _227  and  _228
REMARK   91  A    between atoms: _228  and  _229
REMARK   92  A    between atoms: _233  and  _235
REMARK   93  A    between atoms: _235  and  _236
REMARK   94  A    between atoms: _235  and  _238
REMARK   95  A    between atoms: _238  and  _239
REMARK   96  A    between atoms: _242  and  _244
REMARK   97  A    between atoms: _244  and  _245
REMARK   98  A    between atoms: _244  and  _247
REMARK   99  A    between atoms: _247  and  _248
REMARK  100  A    between atoms: _248  and  _249
REMARK  101  A    between atoms: _249  and  _250
REMARK  102  A    between atoms: _259  and  _261
REMARK  103  A    between atoms: _261  and  _262
REMARK  104  A    between atoms: _261  and  _264
REMARK  105  A    between atoms: _264  and  _265
REMARK  106  A    between atoms: _268  and  _270
REMARK  107  A    between atoms: _270  and  _271
REMARK  108  A    between atoms: _270  and  _273
REMARK  109  A    between atoms: _273  and  _274
REMARK  110  A    between atoms: _274  and  _275
REMARK  111  A    between atoms: _275  and  _276
REMARK  112  A    between atoms: _276  and  _277
REMARK  113  A    between atoms: _281  and  _283
REMARK  114  A    between atoms: _283  and  _284
REMARK  115  A    between atoms: _283  and  _286
REMARK  116  A    between atoms: _286  and  _287
REMARK  117  A    between atoms: _290  and  _292
REMARK  118  A    between atoms: _292  and  _293
REMARK  119  A    between atoms: _292  and  _295
REMARK  120  A    between atoms: _295  and  _296
REMARK  121  A    between atoms: _296  and  _297
REMARK  122  A    between atoms: _302  and  _304
REMARK  123  A    between atoms: _304  and  _305
REMARK  124  A    between atoms: _304  and  _307
REMARK  125  A    between atoms: _307  and  _308
REMARK  126  A    between atoms: _311  and  _313
REMARK  127  A    between atoms: _313  and  _314
REMARK  128  A    between atoms: _313  and  _316
REMARK  129  A    between atoms: _316  and  _317
REMARK  130  A    between atoms: _322  and  _323
REMARK  131  A    between atoms: _325  and  _327
REMARK  132  A    between atoms: _327  and  _328
REMARK  133  A    between atoms: _327  and  _330
REMARK  134  A    between atoms: _330  and  _331
REMARK  135  A    between atoms: _334  and  _336
REMARK  136  A    between atoms: _336  and  _337
REMARK  137  A    between atoms: _336  and  _339
REMARK  138  A    between atoms: _341  and  _343
REMARK  139  A    between atoms: _343  and  _344
REMARK  140  A    between atoms: _347  and  _349
REMARK  141  A    between atoms: _349  and  _350
REMARK  142  A    between atoms: _349  and  _352
REMARK  143  A    between atoms: _352  and  _353
REMARK  144  A    between atoms: _356  and  _358
REMARK  145  A    between atoms: _358  and  _359
REMARK  146  A    between atoms: _362  and  _364
REMARK  147  A    between atoms: _364  and  _365
REMARK  148  A    between atoms: _364  and  _367
REMARK  149  A    between atoms: _367  and  _368
REMARK  150  A    between atoms: _368  and  _482
REMARK  151  A    between atoms: _369  and  _371
REMARK  152  A    between atoms: _371  and  _372
REMARK  153  A    between atoms: _371  and  _374
REMARK  154  A    between atoms: _374  and  _375
REMARK  155  A    between atoms: _375  and  _376
REMARK  156  A    between atoms: _376  and  _377
REMARK  157  A    between atoms: _377  and  _378
REMARK  158  A    between atoms: _382  and  _384
REMARK  159  A    between atoms: _384  and  _385
REMARK  160  A    between atoms: _387  and  _389
REMARK  161  A    between atoms: _389  and  _390
REMARK  162  A    between atoms: _389  and  _392
REMARK  163  A    between atoms: _392  and  _393
REMARK  164  A    between atoms: _396  and  _398
REMARK  165  A    between atoms: _398  and  _399
REMARK  166  A    between atoms: _398  and  _401
REMARK  167  A    between atoms: _401  and  _402
REMARK  168  A    between atoms: _404  and  _406
REMARK  169  A    between atoms: _406  and  _407
REMARK  170  A    between atoms: _409  and  _411
REMARK  171  A    between atoms: _411  and  _412
REMARK  172  A    between atoms: _414  and  _416
REMARK  173  A    between atoms: _416  and  _417
REMARK  174  A    between atoms: _416  and  _419
REMARK  175  A    between atoms: _419  and  _420
REMARK  176  A    between atoms: _423  and  _425
REMARK  177  A    between atoms: _425  and  _426
REMARK  178  A    between atoms: _425  and  _428
REMARK  179  A    between atoms: _428  and  _429
REMARK  180  A    between atoms: _432  and  _434
REMARK  181  A    between atoms: _434  and  _435
REMARK  182  A    between atoms: _434  and  _437
REMARK  183  A    between atoms: _437  and  _438
REMARK  184  A    between atoms: _440  and  _442
REMARK  185  A    between atoms: _442  and  _443
REMARK  186  A    between atoms: _442  and  _445
REMARK  187  A    between atoms: _445  and  _446
REMARK  188  A    between atoms: _456  and  _458
REMARK  189  A    between atoms: _458  and  _459
REMARK  190  A    between atoms: _461  and  _463
REMARK  191  A    between atoms: _463  and  _464
REMARK  192  A    between atoms: _463  and  _466
REMARK  193  A    between atoms: _466  and  _467
REMARK  194  A    between atoms: _467  and  _468
REMARK  195  A    between atoms: _471  and  _473
REMARK  196  A    between atoms: _473  and  _474
REMARK  197  A    between atoms: _476  and  _478
REMARK  198  A    between atoms: _478  and  _479
REMARK  199  A    between atoms: _478  and  _481
REMARK  200  A    between atoms: _481  and  _482
REMARK  201  A    between atoms: _483  and  _485
REMARK  202  A    between atoms: _485  and  _486
REMARK  203  A    between atoms: _489  and  _491
REMARK  204  A    between atoms: _491  and  _492
REMARK  205  A    between atoms: _491  and  _494
REMARK  206  A    between atoms: _494  and  _495
REMARK  207  A    between atoms: _495  and  _496
REMARK  208  A    between atoms: _501  and  _503
REMARK  209  A    between atoms: _503  and  _504
REMARK  210  A    between atoms: _503  and  _506
REMARK  211  A    between atoms: _506  and  _507
REMARK  212  A    between atoms: _507  and  _508
REMARK  213  A    between atoms: _508  and  _509
REMARK  214  A    between atoms: _519  and  _520
REMARK  215  A    between atoms: _525  and  _527
REMARK  216  A    between atoms: _527  and  _528
REMARK  217  A    between atoms: _530  and  _532
REMARK  218  A    between atoms: _532  and  _533
REMARK  219  A    between atoms: _532  and  _535
REMARK  220  A    between atoms: _538  and  _540
REMARK  221  A    between atoms: _540  and  _541
REMARK  222  A    between atoms: _540  and  _543
REMARK  223  A    between atoms: _543  and  _544
REMARK  224  A    between atoms: _549  and  _550
REMARK  225  A    between atoms: _552  and  _554
REMARK  226  A    between atoms: _554  and  _555
REMARK  227  A    between atoms: _554  and  _557
REMARK  228  A    between atoms: _557  and  _558
REMARK                            x       y       z     vdW  Elec       q    Type
REMARK                         _______ _______ _______ _____ _____    ______ ____
ROOT
ATOM      1  C   GLY A   3     -42.132 -11.969 -15.942  0.00  0.00    +0.243 C 
ATOM      2  O   GLY A   3     -40.963 -12.017 -15.548  0.00  0.00    -0.273 OA
ATOM      3  N   VAL A   4     -42.657 -12.861 -16.779  0.00  0.00    -0.297 N 
ATOM      4  H   VAL A   4     -43.651 -12.755 -17.065  0.00  0.00    +0.150 HD
ENDROOT
BRANCH   3   5
ATOM      5  CA  VAL A   4     -41.886 -13.988 -17.313  0.00  0.00    +0.149 C 
BRANCH   5   6
ATOM      6  C   VAL A   4     -41.665 -13.813 -18.815  0.00  0.00    +0.241 C 
ATOM      7  N   TYR A   5     -40.422 -14.066 -19.219  0.00  0.00    -0.297 N 
ATOM      8  H   TYR A   5     -39.764 -14.492 -18.535  0.00  0.00    +0.150 HD
ATOM      9  O   VAL A   4     -42.582 -13.450 -19.572  0.00  0.00    -0.273 OA
BRANCH   7  10
ATOM     10  CA  TYR A   5     -39.928 -13.784 -20.555  0.00  0.00    +0.153 C 
BRANCH  10  11
ATOM     11  C   TYR A   5     -39.230 -15.015 -21.103  0.00  0.00    +0.241 C 
ATOM     12  O   TYR A   5     -38.609 -15.770 -20.351  0.00  0.00    -0.273 OA
ATOM     13  N   THR A   6     -39.319 -15.206 -22.412  0.00  0.00    -0.296 N 
ATOM     14  H   THR A   6     -39.956 -14.605 -22.973  0.00  0.00    +0.150 HD
BRANCH  13  15
ATOM     15  CA  THR A   6     -38.542 -16.241 -23.080  0.00  0.00    +0.164 C 
BRANCH  15  16
ATOM     16  CB  THR A   6     -38.963 -16.392 -24.535  0.00  0.00    +0.136 C 
ATOM     17  CG2 THR A   6     -38.155 -17.466 -25.229  0.00  0.00    +0.034 C 
BRANCH  16  18
ATOM     18  OG1 THR A   6     -40.350 -16.733 -24.584  0.00  0.00    -0.382 OA
ATOM     19  HG1 THR A   6     -40.631 -16.833 -25.528  0.00  0.00    +0.210 HD
ENDBRANCH  16  18
ENDBRANCH  15  16
BRANCH  15  20
ATOM     20  C   THR A   6     -37.081 -15.849 -23.026  0.00  0.00    +0.229 C 
ATOM     21  O   THR A   6     -36.741 -14.730 -23.380  0.00  0.00    -0.286 OA
ENDBRANCH  15  20
ENDBRANCH  13  15
ENDBRANCH  10  11
BRANCH  10  22
ATOM     22  CB  TYR A   5     -38.931 -12.613 -20.511  0.00  0.00    +0.055 C 
BRANCH  22  23
ATOM     23  CG  TYR A   5     -39.530 -11.324 -19.999  0.00  0.00    -0.020 A 
ATOM     24  CD2 TYR A   5     -39.738 -11.119 -18.637  0.00  0.00    -0.001 A 
ATOM     25  CE2 TYR A   5     -40.297  -9.940 -18.166  0.00  0.00    +0.036 A 
ATOM     26  CZ  TYR A   5     -40.655  -8.947 -19.072  0.00  0.00    +0.134 A 
ATOM     27  CE1 TYR A   5     -40.453  -9.128 -20.423  0.00  0.00    +0.036 A 
ATOM     28  CD1 TYR A   5     -39.888 -10.308 -20.883  0.00  0.00    -0.001 A 
BRANCH  26  29
ATOM     29  OH  TYR A   5     -41.208  -7.770 -18.618  0.00  0.00    -0.506 OA
ATOM     30  HH  TYR A   5     -41.284  -7.802 -17.631  0.00  0.00    +0.292 HD
ENDBRANCH  26  29
ENDBRANCH  22  23
ENDBRANCH  10  22
ENDBRANCH   7  10
ENDBRANCH   5   6
BRANCH   5  31
ATOM     31  CB  VAL A   4     -42.567 -15.345 -17.002  0.00  0.00    +0.027 C 
ATOM     32  CG2 VAL A   4     -42.948 -15.402 -15.534  0.00  0.00    +0.002 C 
ATOM     33  CG1 VAL A   4     -41.647 -16.513 -17.362  0.00  0.00    +0.002 C 
ENDBRANCH   5  31
ENDBRANCH   3   5
BRANCH   1  34
ATOM     34  CA  GLY A   3     -43.059 -10.871 -15.461  0.00  0.00    +0.176 C 
BRANCH  34  37
ATOM     35  C   PRO A   2     -43.080 -11.327 -13.088  0.00  0.00    +0.241 C 
ATOM     36  O   PRO A   2     -43.795 -12.325 -13.243  0.00  0.00    -0.273 OA
ATOM     37  N   GLY A   3     -42.733 -10.528 -14.088  0.00  0.00    -0.295 N 
ATOM     38  H   GLY A   3     -42.221  -9.645 -13.887  0.00  0.00    +0.150 HD
BRANCH  35  44
ATOM     39  C   ARG A   1     -44.676 -11.089 -10.504  0.00  0.00    +0.241 C 
ATOM     40  N   PRO A   2     -43.397 -11.491 -10.627  0.00  0.00    -0.272 N 
ATOM     41  CD  PRO A   2     -42.676 -12.497  -9.827  0.00  0.00    +0.094 C 
ATOM     42  CG  PRO A   2     -41.240 -12.243 -10.156  0.00  0.00    +0.024 C 
ATOM     43  CB  PRO A   2     -41.184 -11.548 -11.470  0.00  0.00    +0.031 C 
ATOM     44  CA  PRO A   2     -42.570 -10.937 -11.703  0.00  0.00    +0.152 C 
ATOM     45  O   ARG A   1     -45.195 -10.267 -11.268  0.00  0.00    -0.273 OA
BRANCH  39  46
ATOM     46  CA  ARG A   1     -45.486 -11.693  -9.361  0.00  0.00    +0.145 C 
BRANCH  46  47
ATOM     47  N   ARG A   1     -45.154 -10.996  -8.118  0.00  0.00    -0.238 NA
ATOM     48  H   ARG A   1     -45.062  -9.960  -8.127  0.00  0.00    +0.142 HD
ENDBRANCH  46  47
BRANCH  46  49
ATOM     49  CB  ARG A   1     -46.980 -11.597  -9.673  0.00  0.00    +0.030 C 
BRANCH  49  50
ATOM     50  CG  ARG A   1     -47.894 -12.303  -8.687  0.00  0.00    +0.045 C 
BRANCH  50  51
ATOM     51  CD  ARG A   1     -47.787 -13.815  -8.762  0.00  0.00    +0.174 C 
BRANCH  51  52
ATOM     52  NE  ARG A   1     -48.931 -14.441  -8.103  0.00  0.00    -0.265 N 
ATOM     53  HE  ARG A   1     -49.542 -13.834  -7.520  0.00  0.00    +0.259 HD
ATOM     54  CZ  ARG A   1     -49.250 -15.730  -8.193  0.00  0.00    +0.342 C 
ATOM     55  NH2 ARG A   1     -50.330 -16.180  -7.564  0.00  0.00    -0.292 N 
ATOM     56 HH21 ARG A   1     -50.918 -15.527  -7.008  0.00  0.00    +0.255 HD
ATOM     57 HH22 ARG A   1     -50.588 -17.185  -7.628  0.00  0.00    +0.255 HD
ATOM     58  NH1 ARG A   1     -48.500 -16.573  -8.894  0.00  0.00    -0.292 N 
ATOM     59 HH11 ARG A   1     -48.764 -17.577  -8.954  0.00  0.00    +0.255 HD
ATOM     60 HH12 ARG A   1     -47.649 -16.229  -9.383  0.00  0.00    +0.255 HD
ENDBRANCH  51  52
ENDBRANCH  50  51
ENDBRANCH  49  50
ENDBRANCH  46  49
ENDBRANCH  39  46
ENDBRANCH  35  44
ENDBRANCH  34  37
ENDBRANCH   1  34
TORSDOF 21
REMARK  Name = ../refined-set-2016/4crc/4crc_pocket.pdb
REMARK  228 active torsions:
REMARK  status: ('A' for Active; 'I' for Inactive)
REMARK    1  A    between atoms: _1  and  _5
REMARK    2  A    between atoms: _5  and  _6
REMARK    3  A    between atoms: _5  and  _8
REMARK    4  A    between atoms: _8  and  _9
REMARK    5  A    between atoms: _12  and  _14
REMARK    6  A    between atoms: _14  and  _15
REMARK    7  A    between atoms: _14  and  _17
REMARK    8  A    between atoms: _20  and  _22
REMARK    9  A    between atoms: _22  and  _23
REMARK   10  A    between atoms: _22  and  _25
REMARK   11  A    between atoms: _25  and  _26
REMARK   12  A    between atoms: _26  and  _27
REMARK   13  A    between atoms: _27  and  _28
REMARK   14  A    between atoms: _37  and  _39
REMARK   15  A    between atoms: _39  and  _40
REMARK   16  A    between atoms: _39  and  _42
REMARK   17  A    between atoms: _42  and  _43
REMARK   18  A    between atoms: _48  and  _50
REMARK   19  A    between atoms: _50  and  _51
REMARK   20  A    between atoms: _50  and  _53
REMARK   21  A    between atoms: _53  and  _54
REMARK   22  A    between atoms: _57  and  _59
REMARK   23  A    between atoms: _59  and  _60
REMARK   24  A    between atoms: _59  and  _62
REMARK   25  A    between atoms: _62  and  _63
REMARK   26  A    between atoms: _63  and  _98
REMARK   27  A    between atoms: _64  and  _66
REMARK   28  A    between atoms: _66  and  _67
REMARK   29  A    between atoms: _69  and  _71
REMARK   30  A    between atoms: _71  and  _72
REMARK   31  A    between atoms: _75  and  _77
REMARK   32  A    between atoms: _77  and  _78
REMARK   33  A    between atoms: _81  and  _83
REMARK   34  A    between atoms: _83  and  _84
REMARK   35  A    between atoms: _83  and  _86
REMARK   36  A    between atoms: _86  and  _87
REMARK   37  A    between atoms: _92  and  _94
REMARK   38  A    between atoms: _94  and  _95
REMARK   39  A    between atoms: _94  and  _97
REMARK   40  A    between atoms: _97  and  _98
REMARK   41  A    between atoms: _99  and  _101
REMARK   42  A    between atoms: _101  and  _102
REMARK   43  A    between atoms: _101  and  _104
REMARK   44  A    between atoms: _104  and  _105
REMARK   45  A    between atoms: _111  and  _113
REMARK   46  A    between atoms: _113  and  _114
REMARK   47  A    between atoms: _113  and  _116
REMARK   48  A    between atoms: _116  and  _117
REMARK   49  A    between atoms: _122  and  _123
REMARK   50  A    between atoms: _125  and  _127
REMARK   51  A    between atoms: _127  and  _128
REMARK   52  A    between atoms: _130  and  _132
REMARK   53  A    between atoms: _132  and  _133
REMARK   54  A    between atoms: _132  and  _135
REMARK   55  A    between atoms: _138  and  _140
REMARK   56  A    between atoms: _140  and  _141
REMARK   57  A    between atoms: _140  and  _143
REMARK   58  A    between atoms: _143  and  _144
REMARK   59  A    between atoms: _149  and  _150
REMARK   60  A    between atoms: _152  and  _154
REMARK   61  A    between atoms: _154  and  _155
REMARK   62  A    between atoms: _158  and  _160
REMARK   63  A    between atoms: _160  and  _161
REMARK   64  A    between atoms: _160  and  _163
REMARK   65  A    between atoms: _163  and  _164
REMARK   66  A    between atoms: _164  and  _165
REMARK   67  A    between atoms: _168  and  _170
REMARK   68  A    between atoms: _170  and  _171
REMARK   69  A    between atoms: _170  and  _173
REMARK   70  A    between atoms: _173  and  _174
REMARK   71  A    between atoms: _177  and  _179
REMARK   72  A    between atoms: _179  and  _180
REMARK   73  A    between atoms: _179  and  _182
REMARK   74  A    between atoms: _185  and  _187
REMARK   75  A    between atoms: _187  and  _188
REMARK   76  A    between atoms: _187  and  _190
REMARK   77  A    between atoms: _190  and  _191
REMARK   78  A    between atoms: _201  and  _203
REMARK   79  A    between atoms: _203  and  _204
REMARK   80  A    between atoms: _206  and  _208
REMARK   81  A    between atoms: _208  and  _209
REMARK   82  A    between atoms: _208  and  _211
REMARK   83  A    between atoms: _211  and  _212
REMARK   84  A    between atoms: _217  and  _218
REMARK   85  A    between atoms: _220  and  _222
REMARK   86  A    between atoms: _222  and  _223
REMARK   87  A    between atoms: _222  and  _225
REMARK   88  A    between atoms: _225  and  _226
REMARK   89  A    between atoms: _226  and  _227
REMARK   90  A    between atoms: _227  and  _228
REMARK   91  A    between atoms: _228  and  _229
REMARK   92  A    between atoms: _233  and  _235
REMARK   93  A    between atoms: _235  and  _236
REMARK   94  A    between atoms: _235  and  _238
REMARK   95  A    between atoms: _238  and  _239
REMARK   96  A    between atoms: _242  and  _244
REMARK   97  A    between atoms: _244  and  _245
REMARK   98  A    between atoms: _244  and  _247
REMARK   99  A    between atoms: _247  and  _248
REMARK  100  A    between atoms: _248  and  _249
REMARK  101  A    between atoms: _249  and  _250
REMARK  102  A    between atoms: _259  and  _261
REMARK  103  A    between atoms: _261  and  _262
REMARK  104  A    between atoms: _261  and  _264
REMARK  105  A    between atoms: _264  and  _265
REMARK  106  A    between atoms: _268  and  _270
REMARK  107  A    between atoms: _270  and  _271
REMARK  108  A    between atoms: _270  and  _273
REMARK  109  A    between atoms: _273  and  _274
REMARK  110  A    between atoms: _274  and  _275
REMARK  111  A    between atoms: _275  and  _276
REMARK  112  A    between atoms: _276  and  _277
REMARK  113  A    between atoms: _281  and  _283
REMARK  114  A    between atoms: _283  and  _284
REMARK  115  A    between atoms: _283  and  _286
REMARK  116  A    between atoms: _286  and  _287
REMARK  117  A    between atoms: _290  and  _292
REMARK  118  A    between atoms: _292  and  _293
REMARK  119  A    between atoms: _292  and  _295
REMARK  120  A    between atoms: _295  and  _296
REMARK  121  A    between atoms: _296  and  _297
REMARK  122  A    between atoms: _302  and  _304
REMARK  123  A    between atoms: _304  and  _305
REMARK  124  A    between atoms: _304  and  _307
REMARK  125  A    between atoms: _307  and  _308
REMARK  126  A    between atoms: _311  and  _313
REMARK  127  A    between atoms: _313  and  _314
REMARK  128  A    between atoms: _313  and  _316
REMARK  129  A    between atoms: _316  and  _317
REMARK  130  A    between atoms: _322  and  _323
REMARK  131  A    between atoms: _325  and  _327
REMARK  132  A    between atoms: _327  and  _328
REMARK  133  A    between atoms: _327  and  _330
REMARK  134  A    between atoms: _330  and  _331
REMARK  135  A    between atoms: _334  and  _336
REMARK  136  A    between atoms: _336  and  _337
REMARK  137  A    between atoms: _336  and  _339
REMARK  138  A    between atoms: _341  and  _343
REMARK  139  A    between atoms: _343  and  _344
REMARK  140  A    between atoms: _347  and  _349
REMARK  141  A    between atoms: _349  and  _350
REMARK  142  A    between atoms: _349  and  _352
REMARK  143  A    between atoms: _352  and  _353
REMARK  144  A    between atoms: _356  and  _358
REMARK  145  A    between atoms: _358  and  _359
REMARK  146  A    between atoms: _362  and  _364
REMARK  147  A    between atoms: _364  and  _365
REMARK  148  A    between atoms: _364  and  _367
REMARK  149  A    between atoms: _367  and  _368
REMARK  150  A    between atoms: _368  and  _482
REMARK  151  A    between atoms: _369  and  _371
REMARK  152  A    between atoms: _371  and  _372
REMARK  153  A    between atoms: _371  and  _374
REMARK  154  A    between atoms: _374  and  _375
REMARK  155  A    between atoms: _375  and  _376
REMARK  156  A    between atoms: _376  and  _377
REMARK  157  A    between atoms: _377  and  _378
REMARK  158  A    between atoms: _382  and  _384
REMARK  159  A    between atoms: _384  and  _385
REMARK  160  A    between atoms: _387  and  _389
REMARK  161  A    between atoms: _389  and  _390
REMARK  162  A    between atoms: _389  and  _392
REMARK  163  A    between atoms: _392  and  _393
REMARK  164  A    between atoms: _396  and  _398
REMARK  165  A    between atoms: _398  and  _399
REMARK  166  A    between atoms: _398  and  _401
REMARK  167  A    between atoms: _401  and  _402
REMARK  168  A    between atoms: _404  and  _406
REMARK  169  A    between atoms: _406  and  _407
REMARK  170  A    between atoms: _409  and  _411
REMARK  171  A    between atoms: _411  and  _412
REMARK  172  A    between atoms: _414  and  _416
REMARK  173  A    between atoms: _416  and  _417
REMARK  174  A    between atoms: _416  and  _419
REMARK  175  A    between atoms: _419  and  _420
REMARK  176  A    between atoms: _423  and  _425
REMARK  177  A    between atoms: _425  and  _426
REMARK  178  A    between atoms: _425  and  _428
REMARK  179  A    between atoms: _428  and  _429
REMARK  180  A    between atoms: _432  and  _434
REMARK  181  A    between atoms: _434  and  _435
REMARK  182  A    between atoms: _434  and  _437
REMARK  183  A    between atoms: _437  and  _438
REMARK  184  A    between atoms: _440  and  _442
REMARK  185  A    between atoms: _442  and  _443
REMARK  186  A    between atoms: _442  and  _445
REMARK  187  A    between atoms: _445  and  _446
REMARK  188  A    between atoms: _456  and  _458
REMARK  189  A    between atoms: _458  and  _459
REMARK  190  A    between atoms: _461  and  _463
REMARK  191  A    between atoms: _463  and  _464
REMARK  192  A    between atoms: _463  and  _466
REMARK  193  A    between atoms: _466  and  _467
REMARK  194  A    between atoms: _467  and  _468
REMARK  195  A    between atoms: _471  and  _473
REMARK  196  A    between atoms: _473  and  _474
REMARK  197  A    between atoms: _476  and  _478
REMARK  198  A    between atoms: _478  and  _479
REMARK  199  A    between atoms: _478  and  _481
REMARK  200  A    between atoms: _481  and  _482
REMARK  201  A    between atoms: _483  and  _485
REMARK  202  A    between atoms: _485  and  _486
REMARK  203  A    between atoms: _489  and  _491
REMARK  204  A    between atoms: _491  and  _492
REMARK  205  A    between atoms: _491  and  _494
REMARK  206  A    between atoms: _494  and  _495
REMARK  207  A    between atoms: _495  and  _496
REMARK  208  A    between atoms: _501  and  _503
REMARK  209  A    between atoms: _503  and  _504
REMARK  210  A    between atoms: _503  and  _506
REMARK  211  A    between atoms: _506  and  _507
REMARK  212  A    between atoms: _507  and  _508
REMARK  213  A    between atoms: _508  and  _509
REMARK  214  A    between atoms: _519  and  _520
REMARK  215  A    between atoms: _525  and  _527
REMARK  216  A    between atoms: _527  and  _528
REMARK  217  A    between atoms: _530  and  _532
REMARK  218  A    between atoms: _532  and  _533
REMARK  219  A    between atoms: _532  and  _535
REMARK  220  A    between atoms: _538  and  _540
REMARK  221  A    between atoms: _540  and  _541
REMARK  222  A    between atoms: _540  and  _543
REMARK  223  A    between atoms: _543  and  _544
REMARK  224  A    between atoms: _549  and  _550
REMARK  225  A    between atoms: _552  and  _554
REMARK  226  A    between atoms: _554  and  _555
REMARK  227  A    between atoms: _554  and  _557
REMARK  228  A    between atoms: _557  and  _558
REMARK                            x       y       z     vdW  Elec       q    Type
REMARK                         _______ _______ _______ _____ _____    ______ ____
ROOT
ATOM      1  O   HOH     1     -44.112  -5.024 -27.023  0.00  0.00    +0.000 OA
ENDROOT
TORSDOF 0
REMARK  Name = ../refined-set-2016/4crc/4crc_pocket.pdb
REMARK  228 active torsions:
REMARK  status: ('A' for Active; 'I' for Inactive)
REMARK    1  A    between atoms: _1  and  _5
REMARK    2  A    between atoms: _5  and  _6
REMARK    3  A    between atoms: _5  and  _8
REMARK    4  A    between atoms: _8  and  _9
REMARK    5  A    between atoms: _12  and  _14
REMARK    6  A    between atoms: _14  and  _15
REMARK    7  A    between atoms: _14  and  _17
REMARK    8  A    between atoms: _20  and  _22
REMARK    9  A    between atoms: _22  and  _23
REMARK   10  A    between atoms: _22  and  _25
REMARK   11  A    between atoms: _25  and  _26
REMARK   12  A    between atoms: _26  and  _27
REMARK   13  A    between atoms: _27  and  _28
REMARK   14  A    between atoms: _37  and  _39
REMARK   15  A    between atoms: _39  and  _40
REMARK   16  A    between atoms: _39  and  _42
REMARK   17  A    between atoms: _42  and  _43
REMARK   18  A    between atoms: _48  and  _50
REMARK   19  A    between atoms: _50  and  _51
REMARK   20  A    between atoms: _50  and  _53
REMARK   21  A    between atoms: _53  and  _54
REMARK   22  A    between atoms: _57  and  _59
REMARK   23  A    between atoms: _59  and  _60
REMARK   24  A    between atoms: _59  and  _62
REMARK   25  A    between atoms: _62  and  _63
REMARK   26  A    between atoms: _63  and  _98
REMARK   27  A    between atoms: _64  and  _66
REMARK   28  A    between atoms: _66  and  _67
REMARK   29  A    between atoms: _69  and  _71
REMARK   30  A    between atoms: _71  and  _72
REMARK   31  A    between atoms: _75  and  _77
REMARK   32  A    between atoms: _77  and  _78
REMARK   33  A    between atoms: _81  and  _83
REMARK   34  A    between atoms: _83  and  _84
REMARK   35  A    between atoms: _83  and  _86
REMARK   36  A    between atoms: _86  and  _87
REMARK   37  A    between atoms: _92  and  _94
REMARK   38  A    between atoms: _94  and  _95
REMARK   39  A    between atoms: _94  and  _97
REMARK   40  A    between atoms: _97  and  _98
REMARK   41  A    between atoms: _99  and  _101
REMARK   42  A    between atoms: _101  and  _102
REMARK   43  A    between atoms: _101  and  _104
REMARK   44  A    between atoms: _104  and  _105
REMARK   45  A    between atoms: _111  and  _113
REMARK   46  A    between atoms: _113  and  _114
REMARK   47  A    between atoms: _113  and  _116
REMARK   48  A    between atoms: _116  and  _117
REMARK   49  A    between atoms: _122  and  _123
REMARK   50  A    between atoms: _125  and  _127
REMARK   51  A    between atoms: _127  and  _128
REMARK   52  A    between atoms: _130  and  _132
REMARK   53  A    between atoms: _132  and  _133
REMARK   54  A    between atoms: _132  and  _135
REMARK   55  A    between atoms: _138  and  _140
REMARK   56  A    between atoms: _140  and  _141
REMARK   57  A    between atoms: _140  and  _143
REMARK   58  A    between atoms: _143  and  _144
REMARK   59  A    between atoms: _149  and  _150
REMARK   60  A    between atoms: _152  and  _154
REMARK   61  A    between atoms: _154  and  _155
REMARK   62  A    between atoms: _158  and  _160
REMARK   63  A    between atoms: _160  and  _161
REMARK   64  A    between atoms: _160  and  _163
REMARK   65  A    between atoms: _163  and  _164
REMARK   66  A    between atoms: _164  and  _165
REMARK   67  A    between atoms: _168  and  _170
REMARK   68  A    between atoms: _170  and  _171
REMARK   69  A    between atoms: _170  and  _173
REMARK   70  A    between atoms: _173  and  _174
REMARK   71  A    between atoms: _177  and  _179
REMARK   72  A    between atoms: _179  and  _180
REMARK   73  A    between atoms: _179  and  _182
REMARK   74  A    between atoms: _185  and  _187
REMARK   75  A    between atoms: _187  and  _188
REMARK   76  A    between atoms: _187  and  _190
REMARK   77  A    between atoms: _190  and  _191
REMARK   78  A    between atoms: _201  and  _203
REMARK   79  A    between atoms: _203  and  _204
REMARK   80  A    between atoms: _206  and  _208
REMARK   81  A    between atoms: _208  and  _209
REMARK   82  A    between atoms: _208  and  _211
REMARK   83  A    between atoms: _211  and  _212
REMARK   84  A    between atoms: _217  and  _218
REMARK   85  A    between atoms: _220  and  _222
REMARK   86  A    between atoms: _222  and  _223
REMARK   87  A    between atoms: _222  and  _225
REMARK   88  A    between atoms: _225  and  _226
REMARK   89  A    between atoms: _226  and  _227
REMARK   90  A    between atoms: _227  and  _228
REMARK   91  A    between atoms: _228  and  _229
REMARK   92  A    between atoms: _233  and  _235
REMARK   93  A    between atoms: _235  and  _236
REMARK   94  A    between atoms: _235  and  _238
REMARK   95  A    between atoms: _238  and  _239
REMARK   96  A    between atoms: _242  and  _244
REMARK   97  A    between atoms: _244  and  _245
REMARK   98  A    between atoms: _244  and  _247
REMARK   99  A    between atoms: _247  and  _248
REMARK  100  A    between atoms: _248  and  _249
REMARK  101  A    between atoms: _249  and  _250
REMARK  102  A    between atoms: _259  and  _261
REMARK  103  A    between atoms: _261  and  _262
REMARK  104  A    between atoms: _261  and  _264
REMARK  105  A    between atoms: _264  and  _265
REMARK  106  A    between atoms: _268  and  _270
REMARK  107  A    between atoms: _270  and  _271
REMARK  108  A    between atoms: _270  and  _273
REMARK  109  A    between atoms: _273  and  _274
REMARK  110  A    between atoms: _274  and  _275
REMARK  111  A    between atoms: _275  and  _276
REMARK  112  A    between atoms: _276  and  _277
REMARK  113  A    between atoms: _281  and  _283
REMARK  114  A    between atoms: _283  and  _284
REMARK  115  A    between atoms: _283  and  _286
REMARK  116  A    between atoms: _286  and  _287
REMARK  117  A    between atoms: _290  and  _292
REMARK  118  A    between atoms: _292  and  _293
REMARK  119  A    between atoms: _292  and  _295
REMARK  120  A    between atoms: _295  and  _296
REMARK  121  A    between atoms: _296  and  _297
REMARK  122  A    between atoms: _302  and  _304
REMARK  123  A    between atoms: _304  and  _305
REMARK  124  A    between atoms: _304  and  _307
REMARK  125  A    between atoms: _307  and  _308
REMARK  126  A    between atoms: _311  and  _313
REMARK  127  A    between atoms: _313  and  _314
REMARK  128  A    between atoms: _313  and  _316
REMARK  129  A    between atoms: _316  and  _317
REMARK  130  A    between atoms: _322  and  _323
REMARK  131  A    between atoms: _325  and  _327
REMARK  132  A    between atoms: _327  and  _328
REMARK  133  A    between atoms: _327  and  _330
REMARK  134  A    between atoms: _330  and  _331
REMARK  135  A    between atoms: _334  and  _336
REMARK  136  A    between atoms: _336  and  _337
REMARK  137  A    between atoms: _336  and  _339
REMARK  138  A    between atoms: _341  and  _343
REMARK  139  A    between atoms: _343  and  _344
REMARK  140  A    between atoms: _347  and  _349
REMARK  141  A    between atoms: _349  and  _350
REMARK  142  A    between atoms: _349  and  _352
REMARK  143  A    between atoms: _352  and  _353
REMARK  144  A    between atoms: _356  and  _358
REMARK  145  A    between atoms: _358  and  _359
REMARK  146  A    between atoms: _362  and  _364
REMARK  147  A    between atoms: _364  and  _365
REMARK  148  A    between atoms: _364  and  _367
REMARK  149  A    between atoms: _367  and  _368
REMARK  150  A    between atoms: _368  and  _482
REMARK  151  A    between atoms: _369  and  _371
REMARK  152  A    between atoms: _371  and  _372
REMARK  153  A    between atoms: _371  and  _374
REMARK  154  A    between atoms: _374  and  _375
REMARK  155  A    between atoms: _375  and  _376
REMARK  156  A    between atoms: _376  and  _377
REMARK  157  A    between atoms: _377  and  _378
REMARK  158  A    between atoms: _382  and  _384
REMARK  159  A    between atoms: _384  and  _385
REMARK  160  A    between atoms: _387  and  _389
REMARK  161  A    between atoms: _389  and  _390
REMARK  162  A    between atoms: _389  and  _392
REMARK  163  A    between atoms: _392  and  _393
REMARK  164  A    between atoms: _396  and  _398
REMARK  165  A    between atoms: _398  and  _399
REMARK  166  A    between atoms: _398  and  _401
REMARK  167  A    between atoms: _401  and  _402
REMARK  168  A    between atoms: _404  and  _406
REMARK  169  A    between atoms: _406  and  _407
REMARK  170  A    between atoms: _409  and  _411
REMARK  171  A    between atoms: _411  and  _412
REMARK  172  A    between atoms: _414  and  _416
REMARK  173  A    between atoms: _416  and  _417
REMARK  174  A    between atoms: _416  and  _419
REMARK  175  A    between atoms: _419  and  _420
REMARK  176  A    between atoms: _423  and  _425
REMARK  177  A    between atoms: _425  and  _426
REMARK  178  A    between atoms: _425  and  _428
REMARK  179  A    between atoms: _428  and  _429
REMARK  180  A    between atoms: _432  and  _434
REMARK  181  A    between atoms: _434  and  _435
REMARK  182  A    between atoms: _434  and  _437
REMARK  183  A    between atoms: _437  and  _438
REMARK  184  A    between atoms: _440  and  _442
REMARK  185  A    between atoms: _442  and  _443
REMARK  186  A    between atoms: _442  and  _445
REMARK  187  A    between atoms: _445  and  _446
REMARK  188  A    between atoms: _456  and  _458
REMARK  189  A    between atoms: _458  and  _459
REMARK  190  A    between atoms: _461  and  _463
REMARK  191  A    between atoms: _463  and  _464
REMARK  192  A    between atoms: _463  and  _466
REMARK  193  A    between atoms: _466  and  _467
REMARK  194  A    between atoms: _467  and  _468
REMARK  195  A    between atoms: _471  and  _473
REMARK  196  A    between atoms: _473  and  _474
REMARK  197  A    between atoms: _476  and  _478
REMARK  198  A    between atoms: _478  and  _479
REMARK  199  A    between atoms: _478  and  _481
REMARK  200  A    between atoms: _481  and  _482
REMARK  201  A    between atoms: _483  and  _485
REMARK  202  A    between atoms: _485  and  _486
REMARK  203  A    between atoms: _489  and  _491
REMARK  204  A    between atoms: _491  and  _492
REMARK  205  A    between atoms: _491  and  _494
REMARK  206  A    between atoms: _494  and  _495
REMARK  207  A    between atoms: _495  and  _496
REMARK  208  A    between atoms: _501  and  _503
REMARK  209  A    between atoms: _503  and  _504
REMARK  210  A    between atoms: _503  and  _506
REMARK  211  A    between atoms: _506  and  _507
REMARK  212  A    between atoms: _507  and  _508
REMARK  213  A    between atoms: _508  and  _509
REMARK  214  A    between atoms: _519  and  _520
REMARK  215  A    between atoms: _525  and  _527
REMARK  216  A    between atoms: _527  and  _528
REMARK  217  A    between atoms: _530  and  _532
REMARK  218  A    between atoms: _532  and  _533
REMARK  219  A    between atoms: _532  and  _535
REMARK  220  A    between atoms: _538  and  _540
REMARK  221  A    between atoms: _540  and  _541
REMARK  222  A    between atoms: _540  and  _543
REMARK  223  A    between atoms: _543  and  _544
REMARK  224  A    between atoms: _549  and  _550
REMARK  225  A    between atoms: _552  and  _554
REMARK  226  A    between atoms: _554  and  _555
REMARK  227  A    between atoms: _554  and  _557
REMARK  228  A    between atoms: _557  and  _558
REMARK                            x       y       z     vdW  Elec       q    Type
REMARK                         _______ _______ _______ _____ _____    ______ ____
ROOT
ATOM      1  O   HOH     1     -55.807  -1.539 -30.598  0.00  0.00    +0.000 OA
ENDROOT
TORSDOF 0
REMARK  Name = ../refined-set-2016/4crc/4crc_pocket.pdb
REMARK  228 active torsions:
REMARK  status: ('A' for Active; 'I' for Inactive)
REMARK    1  A    between atoms: _1  and  _5
REMARK    2  A    between atoms: _5  and  _6
REMARK    3  A    between atoms: _5  and  _8
REMARK    4  A    between atoms: _8  and  _9
REMARK    5  A    between atoms: _12  and  _14
REMARK    6  A    between atoms: _14  and  _15
REMARK    7  A    between atoms: _14  and  _17
REMARK    8  A    between atoms: _20  and  _22
REMARK    9  A    between atoms: _22  and  _23
REMARK   10  A    between atoms: _22  and  _25
REMARK   11  A    between atoms: _25  and  _26
REMARK   12  A    between atoms: _26  and  _27
REMARK   13  A    between atoms: _27  and  _28
REMARK   14  A    between atoms: _37  and  _39
REMARK   15  A    between atoms: _39  and  _40
REMARK   16  A    between atoms: _39  and  _42
REMARK   17  A    between atoms: _42  and  _43
REMARK   18  A    between atoms: _48  and  _50
REMARK   19  A    between atoms: _50  and  _51
REMARK   20  A    between atoms: _50  and  _53
REMARK   21  A    between atoms: _53  and  _54
REMARK   22  A    between atoms: _57  and  _59
REMARK   23  A    between atoms: _59  and  _60
REMARK   24  A    between atoms: _59  and  _62
REMARK   25  A    between atoms: _62  and  _63
REMARK   26  A    between atoms: _63  and  _98
REMARK   27  A    between atoms: _64  and  _66
REMARK   28  A    between atoms: _66  and  _67
REMARK   29  A    between atoms: _69  and  _71
REMARK   30  A    between atoms: _71  and  _72
REMARK   31  A    between atoms: _75  and  _77
REMARK   32  A    between atoms: _77  and  _78
REMARK   33  A    between atoms: _81  and  _83
REMARK   34  A    between atoms: _83  and  _84
REMARK   35  A    between atoms: _83  and  _86
REMARK   36  A    between atoms: _86  and  _87
REMARK   37  A    between atoms: _92  and  _94
REMARK   38  A    between atoms: _94  and  _95
REMARK   39  A    between atoms: _94  and  _97
REMARK   40  A    between atoms: _97  and  _98
REMARK   41  A    between atoms: _99  and  _101
REMARK   42  A    between atoms: _101  and  _102
REMARK   43  A    between atoms: _101  and  _104
REMARK   44  A    between atoms: _104  and  _105
REMARK   45  A    between atoms: _111  and  _113
REMARK   46  A    between atoms: _113  and  _114
REMARK   47  A    between atoms: _113  and  _116
REMARK   48  A    between atoms: _116  and  _117
REMARK   49  A    between atoms: _122  and  _123
REMARK   50  A    between atoms: _125  and  _127
REMARK   51  A    between atoms: _127  and  _128
REMARK   52  A    between atoms: _130  and  _132
REMARK   53  A    between atoms: _132  and  _133
REMARK   54  A    between atoms: _132  and  _135
REMARK   55  A    between atoms: _138  and  _140
REMARK   56  A    between atoms: _140  and  _141
REMARK   57  A    between atoms: _140  and  _143
REMARK   58  A    between atoms: _143  and  _144
REMARK   59  A    between atoms: _149  and  _150
REMARK   60  A    between atoms: _152  and  _154
REMARK   61  A    between atoms: _154  and  _155
REMARK   62  A    between atoms: _158  and  _160
REMARK   63  A    between atoms: _160  and  _161
REMARK   64  A    between atoms: _160  and  _163
REMARK   65  A    between atoms: _163  and  _164
REMARK   66  A    between atoms: _164  and  _165
REMARK   67  A    between atoms: _168  and  _170
REMARK   68  A    between atoms: _170  and  _171
REMARK   69  A    between atoms: _170  and  _173
REMARK   70  A    between atoms: _173  and  _174
REMARK   71  A    between atoms: _177  and  _179
REMARK   72  A    between atoms: _179  and  _180
REMARK   73  A    between atoms: _179  and  _182
REMARK   74  A    between atoms: _185  and  _187
REMARK   75  A    between atoms: _187  and  _188
REMARK   76  A    between atoms: _187  and  _190
REMARK   77  A    between atoms: _190  and  _191
REMARK   78  A    between atoms: _201  and  _203
REMARK   79  A    between atoms: _203  and  _204
REMARK   80  A    between atoms: _206  and  _208
REMARK   81  A    between atoms: _208  and  _209
REMARK   82  A    between atoms: _208  and  _211
REMARK   83  A    between atoms: _211  and  _212
REMARK   84  A    between atoms: _217  and  _218
REMARK   85  A    between atoms: _220  and  _222
REMARK   86  A    between atoms: _222  and  _223
REMARK   87  A    between atoms: _222  and  _225
REMARK   88  A    between atoms: _225  and  _226
REMARK   89  A    between atoms: _226  and  _227
REMARK   90  A    between atoms: _227  and  _228
REMARK   91  A    between atoms: _228  and  _229
REMARK   92  A    between atoms: _233  and  _235
REMARK   93  A    between atoms: _235  and  _236
REMARK   94  A    between atoms: _235  and  _238
REMARK   95  A    between atoms: _238  and  _239
REMARK   96  A    between atoms: _242  and  _244
REMARK   97  A    between atoms: _244  and  _245
REMARK   98  A    between atoms: _244  and  _247
REMARK   99  A    between atoms: _247  and  _248
REMARK  100  A    between atoms: _248  and  _249
REMARK  101  A    between atoms: _249  and  _250
REMARK  102  A    between atoms: _259  and  _261
REMARK  103  A    between atoms: _261  and  _262
REMARK  104  A    between atoms: _261  and  _264
REMARK  105  A    between atoms: _264  and  _265
REMARK  106  A    between atoms: _268  and  _270
REMARK  107  A    between atoms: _270  and  _271
REMARK  108  A    between atoms: _270  and  _273
REMARK  109  A    between atoms: _273  and  _274
REMARK  110  A    between atoms: _274  and  _275
REMARK  111  A    between atoms: _275  and  _276
REMARK  112  A    between atoms: _276  and  _277
REMARK  113  A    between atoms: _281  and  _283
REMARK  114  A    between atoms: _283  and  _284
REMARK  115  A    between atoms: _283  and  _286
REMARK  116  A    between atoms: _286  and  _287
REMARK  117  A    between atoms: _290  and  _292
REMARK  118  A    between atoms: _292  and  _293
REMARK  119  A    between atoms: _292  and  _295
REMARK  120  A    between atoms: _295  and  _296
REMARK  121  A    between atoms: _296  and  _297
REMARK  122  A    between atoms: _302  and  _304
REMARK  123  A    between atoms: _304  and  _305
REMARK  124  A    between atoms: _304  and  _307
REMARK  125  A    between atoms: _307  and  _308
REMARK  126  A    between atoms: _311  and  _313
REMARK  127  A    between atoms: _313  and  _314
REMARK  128  A    between atoms: _313  and  _316
REMARK  129  A    between atoms: _316  and  _317
REMARK  130  A    between atoms: _322  and  _323
REMARK  131  A    between atoms: _325  and  _327
REMARK  132  A    between atoms: _327  and  _328
REMARK  133  A    between atoms: _327  and  _330
REMARK  134  A    between atoms: _330  and  _331
REMARK  135  A    between atoms: _334  and  _336
REMARK  136  A    between atoms: _336  and  _337
REMARK  137  A    between atoms: _336  and  _339
REMARK  138  A    between atoms: _341  and  _343
REMARK  139  A    between atoms: _343  and  _344
REMARK  140  A    between atoms: _347  and  _349
REMARK  141  A    between atoms: _349  and  _350
REMARK  142  A    between atoms: _349  and  _352
REMARK  143  A    between atoms: _352  and  _353
REMARK  144  A    between atoms: _356  and  _358
REMARK  145  A    between atoms: _358  and  _359
REMARK  146  A    between atoms: _362  and  _364
REMARK  147  A    between atoms: _364  and  _365
REMARK  148  A    between atoms: _364  and  _367
REMARK  149  A    between atoms: _367  and  _368
REMARK  150  A    between atoms: _368  and  _482
REMARK  151  A    between atoms: _369  and  _371
REMARK  152  A    between atoms: _371  and  _372
REMARK  153  A    between atoms: _371  and  _374
REMARK  154  A    between atoms: _374  and  _375
REMARK  155  A    between atoms: _375  and  _376
REMARK  156  A    between atoms: _376  and  _377
REMARK  157  A    between atoms: _377  and  _378
REMARK  158  A    between atoms: _382  and  _384
REMARK  159  A    between atoms: _384  and  _385
REMARK  160  A    between atoms: _387  and  _389
REMARK  161  A    between atoms: _389  and  _390
REMARK  162  A    between atoms: _389  and  _392
REMARK  163  A    between atoms: _392  and  _393
REMARK  164  A    between atoms: _396  and  _398
REMARK  165  A    between atoms: _398  and  _399
REMARK  166  A    between atoms: _398  and  _401
REMARK  167  A    between atoms: _401  and  _402
REMARK  168  A    between atoms: _404  and  _406
REMARK  169  A    between atoms: _406  and  _407
REMARK  170  A    between atoms: _409  and  _411
REMARK  171  A    between atoms: _411  and  _412
REMARK  172  A    between atoms: _414  and  _416
REMARK  173  A    between atoms: _416  and  _417
REMARK  174  A    between atoms: _416  and  _419
REMARK  175  A    between atoms: _419  and  _420
REMARK  176  A    between atoms: _423  and  _425
REMARK  177  A    between atoms: _425  and  _426
REMARK  178  A    between atoms: _425  and  _428
REMARK  179  A    between atoms: _428  and  _429
REMARK  180  A    between atoms: _432  and  _434
REMARK  181  A    between atoms: _434  and  _435
REMARK  182  A    between atoms: _434  and  _437
REMARK  183  A    between atoms: _437  and  _438
REMARK  184  A    between atoms: _440  and  _442
REMARK  185  A    between atoms: _442  and  _443
REMARK  186  A    between atoms: _442  and  _445
REMARK  187  A    between atoms: _445  and  _446
REMARK  188  A    between atoms: _456  and  _458
REMARK  189  A    between atoms: _458  and  _459
REMARK  190  A    between atoms: _461  and  _463
REMARK  191  A    between atoms: _463  and  _464
REMARK  192  A    between atoms: _463  and  _466
REMARK  193  A    between atoms: _466  and  _467
REMARK  194  A    between atoms: _467  and  _468
REMARK  195  A    between atoms: _471  and  _473
REMARK  196  A    between atoms: _473  and  _474
REMARK  197  A    between atoms: _476  and  _478
REMARK  198  A    between atoms: _478  and  _479
REMARK  199  A    between atoms: _478  and  _481
REMARK  200  A    between atoms: _481  and  _482
REMARK  201  A    between atoms: _483  and  _485
REMARK  202  A    between atoms: _485  and  _486
REMARK  203  A    between atoms: _489  and  _491
REMARK  204  A    between atoms: _491  and  _492
REMARK  205  A    between atoms: _491  and  _494
REMARK  206  A    between atoms: _494  and  _495
REMARK  207  A    between atoms: _495  and  _496
REMARK  208  A    between atoms: _501  and  _503
REMARK  209  A    between atoms: _503  and  _504
REMARK  210  A    between atoms: _503  and  _506
REMARK  211  A    between atoms: _506  and  _507
REMARK  212  A    between atoms: _507  and  _508
REMARK  213  A    between atoms: _508  and  _509
REMARK  214  A    between atoms: _519  and  _520
REMARK  215  A    between atoms: _525  and  _527
REMARK  216  A    between atoms: _527  and  _528
REMARK  217  A    between atoms: _530  and  _532
REMARK  218  A    between atoms: _532  and  _533
REMARK  219  A    between atoms: _532  and  _535
REMARK  220  A    between atoms: _538  and  _540
REMARK  221  A    between atoms: _540  and  _541
REMARK  222  A    between atoms: _540  and  _543
REMARK  223  A    between atoms: _543  and  _544
REMARK  224  A    between atoms: _549  and  _550
REMARK  225  A    between atoms: _552  and  _554
REMARK  226  A    between atoms: _554  and  _555
REMARK  227  A    between atoms: _554  and  _557
REMARK  228  A    between atoms: _557  and  _558
REMARK                            x       y       z     vdW  Elec       q    Type
REMARK                         _______ _______ _______ _____ _____    ______ ____
ROOT
ATOM      1  O   HOH     1     -55.818 -12.843 -30.771  0.00  0.00    +0.000 OA
ENDROOT
TORSDOF 0
REMARK  Name = ../refined-set-2016/4crc/4crc_pocket.pdb
REMARK  228 active torsions:
REMARK  status: ('A' for Active; 'I' for Inactive)
REMARK    1  A    between atoms: _1  and  _5
REMARK    2  A    between atoms: _5  and  _6
REMARK    3  A    between atoms: _5  and  _8
REMARK    4  A    between atoms: _8  and  _9
REMARK    5  A    between atoms: _12  and  _14
REMARK    6  A    between atoms: _14  and  _15
REMARK    7  A    between atoms: _14  and  _17
REMARK    8  A    between atoms: _20  and  _22
REMARK    9  A    between atoms: _22  and  _23
REMARK   10  A    between atoms: _22  and  _25
REMARK   11  A    between atoms: _25  and  _26
REMARK   12  A    between atoms: _26  and  _27
REMARK   13  A    between atoms: _27  and  _28
REMARK   14  A    between atoms: _37  and  _39
REMARK   15  A    between atoms: _39  and  _40
REMARK   16  A    between atoms: _39  and  _42
REMARK   17  A    between atoms: _42  and  _43
REMARK   18  A    between atoms: _48  and  _50
REMARK   19  A    between atoms: _50  and  _51
REMARK   20  A    between atoms: _50  and  _53
REMARK   21  A    between atoms: _53  and  _54
REMARK   22  A    between atoms: _57  and  _59
REMARK   23  A    between atoms: _59  and  _60
REMARK   24  A    between atoms: _59  and  _62
REMARK   25  A    between atoms: _62  and  _63
REMARK   26  A    between atoms: _63  and  _98
REMARK   27  A    between atoms: _64  and  _66
REMARK   28  A    between atoms: _66  and  _67
REMARK   29  A    between atoms: _69  and  _71
REMARK   30  A    between atoms: _71  and  _72
REMARK   31  A    between atoms: _75  and  _77
REMARK   32  A    between atoms: _77  and  _78
REMARK   33  A    between atoms: _81  and  _83
REMARK   34  A    between atoms: _83  and  _84
REMARK   35  A    between atoms: _83  and  _86
REMARK   36  A    between atoms: _86  and  _87
REMARK   37  A    between atoms: _92  and  _94
REMARK   38  A    between atoms: _94  and  _95
REMARK   39  A    between atoms: _94  and  _97
REMARK   40  A    between atoms: _97  and  _98
REMARK   41  A    between atoms: _99  and  _101
REMARK   42  A    between atoms: _101  and  _102
REMARK   43  A    between atoms: _101  and  _104
REMARK   44  A    between atoms: _104  and  _105
REMARK   45  A    between atoms: _111  and  _113
REMARK   46  A    between atoms: _113  and  _114
REMARK   47  A    between atoms: _113  and  _116
REMARK   48  A    between atoms: _116  and  _117
REMARK   49  A    between atoms: _122  and  _123
REMARK   50  A    between atoms: _125  and  _127
REMARK   51  A    between atoms: _127  and  _128
REMARK   52  A    between atoms: _130  and  _132
REMARK   53  A    between atoms: _132  and  _133
REMARK   54  A    between atoms: _132  and  _135
REMARK   55  A    between atoms: _138  and  _140
REMARK   56  A    between atoms: _140  and  _141
REMARK   57  A    between atoms: _140  and  _143
REMARK   58  A    between atoms: _143  and  _144
REMARK   59  A    between atoms: _149  and  _150
REMARK   60  A    between atoms: _152  and  _154
REMARK   61  A    between atoms: _154  and  _155
REMARK   62  A    between atoms: _158  and  _160
REMARK   63  A    between atoms: _160  and  _161
REMARK   64  A    between atoms: _160  and  _163
REMARK   65  A    between atoms: _163  and  _164
REMARK   66  A    between atoms: _164  and  _165
REMARK   67  A    between atoms: _168  and  _170
REMARK   68  A    between atoms: _170  and  _171
REMARK   69  A    between atoms: _170  and  _173
REMARK   70  A    between atoms: _173  and  _174
REMARK   71  A    between atoms: _177  and  _179
REMARK   72  A    between atoms: _179  and  _180
REMARK   73  A    between atoms: _179  and  _182
REMARK   74  A    between atoms: _185  and  _187
REMARK   75  A    between atoms: _187  and  _188
REMARK   76  A    between atoms: _187  and  _190
REMARK   77  A    between atoms: _190  and  _191
REMARK   78  A    between atoms: _201  and  _203
REMARK   79  A    between atoms: _203  and  _204
REMARK   80  A    between atoms: _206  and  _208
REMARK   81  A    between atoms: _208  and  _209
REMARK   82  A    between atoms: _208  and  _211
REMARK   83  A    between atoms: _211  and  _212
REMARK   84  A    between atoms: _217  and  _218
REMARK   85  A    between atoms: _220  and  _222
REMARK   86  A    between atoms: _222  and  _223
REMARK   87  A    between atoms: _222  and  _225
REMARK   88  A    between atoms: _225  and  _226
REMARK   89  A    between atoms: _226  and  _227
REMARK   90  A    between atoms: _227  and  _228
REMARK   91  A    between atoms: _228  and  _229
REMARK   92  A    between atoms: _233  and  _235
REMARK   93  A    between atoms: _235  and  _236
REMARK   94  A    between atoms: _235  and  _238
REMARK   95  A    between atoms: _238  and  _239
REMARK   96  A    between atoms: _242  and  _244
REMARK   97  A    between atoms: _244  and  _245
REMARK   98  A    between atoms: _244  and  _247
REMARK   99  A    between atoms: _247  and  _248
REMARK  100  A    between atoms: _248  and  _249
REMARK  101  A    between atoms: _249  and  _250
REMARK  102  A    between atoms: _259  and  _261
REMARK  103  A    between atoms: _261  and  _262
REMARK  104  A    between atoms: _261  and  _264
REMARK  105  A    between atoms: _264  and  _265
REMARK  106  A    between atoms: _268  and  _270
REMARK  107  A    between atoms: _270  and  _271
REMARK  108  A    between atoms: _270  and  _273
REMARK  109  A    between atoms: _273  and  _274
REMARK  110  A    between atoms: _274  and  _275
REMARK  111  A    between atoms: _275  and  _276
REMARK  112  A    between atoms: _276  and  _277
REMARK  113  A    between atoms: _281  and  _283
REMARK  114  A    between atoms: _283  and  _284
REMARK  115  A    between atoms: _283  and  _286
REMARK  116  A    between atoms: _286  and  _287
REMARK  117  A    between atoms: _290  and  _292
REMARK  118  A    between atoms: _292  and  _293
REMARK  119  A    between atoms: _292  and  _295
REMARK  120  A    between atoms: _295  and  _296
REMARK  121  A    between atoms: _296  and  _297
REMARK  122  A    between atoms: _302  and  _304
REMARK  123  A    between atoms: _304  and  _305
REMARK  124  A    between atoms: _304  and  _307
REMARK  125  A    between atoms: _307  and  _308
REMARK  126  A    between atoms: _311  and  _313
REMARK  127  A    between atoms: _313  and  _314
REMARK  128  A    between atoms: _313  and  _316
REMARK  129  A    between atoms: _316  and  _317
REMARK  130  A    between atoms: _322  and  _323
REMARK  131  A    between atoms: _325  and  _327
REMARK  132  A    between atoms: _327  and  _328
REMARK  133  A    between atoms: _327  and  _330
REMARK  134  A    between atoms: _330  and  _331
REMARK  135  A    between atoms: _334  and  _336
REMARK  136  A    between atoms: _336  and  _337
REMARK  137  A    between atoms: _336  and  _339
REMARK  138  A    between atoms: _341  and  _343
REMARK  139  A    between atoms: _343  and  _344
REMARK  140  A    between atoms: _347  and  _349
REMARK  141  A    between atoms: _349  and  _350
REMARK  142  A    between atoms: _349  and  _352
REMARK  143  A    between atoms: _352  and  _353
REMARK  144  A    between atoms: _356  and  _358
REMARK  145  A    between atoms: _358  and  _359
REMARK  146  A    between atoms: _362  and  _364
REMARK  147  A    between atoms: _364  and  _365
REMARK  148  A    between atoms: _364  and  _367
REMARK  149  A    between atoms: _367  and  _368
REMARK  150  A    between atoms: _368  and  _482
REMARK  151  A    between atoms: _369  and  _371
REMARK  152  A    between atoms: _371  and  _372
REMARK  153  A    between atoms: _371  and  _374
REMARK  154  A    between atoms: _374  and  _375
REMARK  155  A    between atoms: _375  and  _376
REMARK  156  A    between atoms: _376  and  _377
REMARK  157  A    between atoms: _377  and  _378
REMARK  158  A    between atoms: _382  and  _384
REMARK  159  A    between atoms: _384  and  _385
REMARK  160  A    between atoms: _387  and  _389
REMARK  161  A    between atoms: _389  and  _390
REMARK  162  A    between atoms: _389  and  _392
REMARK  163  A    between atoms: _392  and  _393
REMARK  164  A    between atoms: _396  and  _398
REMARK  165  A    between atoms: _398  and  _399
REMARK  166  A    between atoms: _398  and  _401
REMARK  167  A    between atoms: _401  and  _402
REMARK  168  A    between atoms: _404  and  _406
REMARK  169  A    between atoms: _406  and  _407
REMARK  170  A    between atoms: _409  and  _411
REMARK  171  A    between atoms: _411  and  _412
REMARK  172  A    between atoms: _414  and  _416
REMARK  173  A    between atoms: _416  and  _417
REMARK  174  A    between atoms: _416  and  _419
REMARK  175  A    between atoms: _419  and  _420
REMARK  176  A    between atoms: _423  and  _425
REMARK  177  A    between atoms: _425  and  _426
REMARK  178  A    between atoms: _425  and  _428
REMARK  179  A    between atoms: _428  and  _429
REMARK  180  A    between atoms: _432  and  _434
REMARK  181  A    between atoms: _434  and  _435
REMARK  182  A    between atoms: _434  and  _437
REMARK  183  A    between atoms: _437  and  _438
REMARK  184  A    between atoms: _440  and  _442
REMARK  185  A    between atoms: _442  and  _443
REMARK  186  A    between atoms: _442  and  _445
REMARK  187  A    between atoms: _445  and  _446
REMARK  188  A    between atoms: _456  and  _458
REMARK  189  A    between atoms: _458  and  _459
REMARK  190  A    between atoms: _461  and  _463
REMARK  191  A    between atoms: _463  and  _464
REMARK  192  A    between atoms: _463  and  _466
REMARK  193  A    between atoms: _466  and  _467
REMARK  194  A    between atoms: _467  and  _468
REMARK  195  A    between atoms: _471  and  _473
REMARK  196  A    between atoms: _473  and  _474
REMARK  197  A    between atoms: _476  and  _478
REMARK  198  A    between atoms: _478  and  _479
REMARK  199  A    between atoms: _478  and  _481
REMARK  200  A    between atoms: _481  and  _482
REMARK  201  A    between atoms: _483  and  _485
REMARK  202  A    between atoms: _485  and  _486
REMARK  203  A    between atoms: _489  and  _491
REMARK  204  A    between atoms: _491  and  _492
REMARK  205  A    between atoms: _491  and  _494
REMARK  206  A    between atoms: _494  and  _495
REMARK  207  A    between atoms: _495  and  _496
REMARK  208  A    between atoms: _501  and  _503
REMARK  209  A    between atoms: _503  and  _504
REMARK  210  A    between atoms: _503  and  _506
REMARK  211  A    between atoms: _506  and  _507
REMARK  212  A    between atoms: _507  and  _508
REMARK  213  A    between atoms: _508  and  _509
REMARK  214  A    between atoms: _519  and  _520
REMARK  215  A    between atoms: _525  and  _527
REMARK  216  A    between atoms: _527  and  _528
REMARK  217  A    between atoms: _530  and  _532
REMARK  218  A    between atoms: _532  and  _533
REMARK  219  A    between atoms: _532  and  _535
REMARK  220  A    between atoms: _538  and  _540
REMARK  221  A    between atoms: _540  and  _541
REMARK  222  A    between atoms: _540  and  _543
REMARK  223  A    between atoms: _543  and  _544
REMARK  224  A    between atoms: _549  and  _550
REMARK  225  A    between atoms: _552  and  _554
REMARK  226  A    between atoms: _554  and  _555
REMARK  227  A    between atoms: _554  and  _557
REMARK  228  A    between atoms: _557  and  _558
REMARK                            x       y       z     vdW  Elec       q    Type
REMARK                         _______ _______ _______ _____ _____    ______ ____
ROOT
ATOM      1  O   HOH     1     -55.535  -4.155 -30.414  0.00  0.00    +0.000 OA
ENDROOT
TORSDOF 0
REMARK  Name = ../refined-set-2016/4crc/4crc_pocket.pdb
REMARK  228 active torsions:
REMARK  status: ('A' for Active; 'I' for Inactive)
REMARK    1  A    between atoms: _1  and  _5
REMARK    2  A    between atoms: _5  and  _6
REMARK    3  A    between atoms: _5  and  _8
REMARK    4  A    between atoms: _8  and  _9
REMARK    5  A    between atoms: _12  and  _14
REMARK    6  A    between atoms: _14  and  _15
REMARK    7  A    between atoms: _14  and  _17
REMARK    8  A    between atoms: _20  and  _22
REMARK    9  A    between atoms: _22  and  _23
REMARK   10  A    between atoms: _22  and  _25
REMARK   11  A    between atoms: _25  and  _26
REMARK   12  A    between atoms: _26  and  _27
REMARK   13  A    between atoms: _27  and  _28
REMARK   14  A    between atoms: _37  and  _39
REMARK   15  A    between atoms: _39  and  _40
REMARK   16  A    between atoms: _39  and  _42
REMARK   17  A    between atoms: _42  and  _43
REMARK   18  A    between atoms: _48  and  _50
REMARK   19  A    between atoms: _50  and  _51
REMARK   20  A    between atoms: _50  and  _53
REMARK   21  A    between atoms: _53  and  _54
REMARK   22  A    between atoms: _57  and  _59
REMARK   23  A    between atoms: _59  and  _60
REMARK   24  A    between atoms: _59  and  _62
REMARK   25  A    between atoms: _62  and  _63
REMARK   26  A    between atoms: _63  and  _98
REMARK   27  A    between atoms: _64  and  _66
REMARK   28  A    between atoms: _66  and  _67
REMARK   29  A    between atoms: _69  and  _71
REMARK   30  A    between atoms: _71  and  _72
REMARK   31  A    between atoms: _75  and  _77
REMARK   32  A    between atoms: _77  and  _78
REMARK   33  A    between atoms: _81  and  _83
REMARK   34  A    between atoms: _83  and  _84
REMARK   35  A    between atoms: _83  and  _86
REMARK   36  A    between atoms: _86  and  _87
REMARK   37  A    between atoms: _92  and  _94
REMARK   38  A    between atoms: _94  and  _95
REMARK   39  A    between atoms: _94  and  _97
REMARK   40  A    between atoms: _97  and  _98
REMARK   41  A    between atoms: _99  and  _101
REMARK   42  A    between atoms: _101  and  _102
REMARK   43  A    between atoms: _101  and  _104
REMARK   44  A    between atoms: _104  and  _105
REMARK   45  A    between atoms: _111  and  _113
REMARK   46  A    between atoms: _113  and  _114
REMARK   47  A    between atoms: _113  and  _116
REMARK   48  A    between atoms: _116  and  _117
REMARK   49  A    between atoms: _122  and  _123
REMARK   50  A    between atoms: _125  and  _127
REMARK   51  A    between atoms: _127  and  _128
REMARK   52  A    between atoms: _130  and  _132
REMARK   53  A    between atoms: _132  and  _133
REMARK   54  A    between atoms: _132  and  _135
REMARK   55  A    between atoms: _138  and  _140
REMARK   56  A    between atoms: _140  and  _141
REMARK   57  A    between atoms: _140  and  _143
REMARK   58  A    between atoms: _143  and  _144
REMARK   59  A    between atoms: _149  and  _150
REMARK   60  A    between atoms: _152  and  _154
REMARK   61  A    between atoms: _154  and  _155
REMARK   62  A    between atoms: _158  and  _160
REMARK   63  A    between atoms: _160  and  _161
REMARK   64  A    between atoms: _160  and  _163
REMARK   65  A    between atoms: _163  and  _164
REMARK   66  A    between atoms: _164  and  _165
REMARK   67  A    between atoms: _168  and  _170
REMARK   68  A    between atoms: _170  and  _171
REMARK   69  A    between atoms: _170  and  _173
REMARK   70  A    between atoms: _173  and  _174
REMARK   71  A    between atoms: _177  and  _179
REMARK   72  A    between atoms: _179  and  _180
REMARK   73  A    between atoms: _179  and  _182
REMARK   74  A    between atoms: _185  and  _187
REMARK   75  A    between atoms: _187  and  _188
REMARK   76  A    between atoms: _187  and  _190
REMARK   77  A    between atoms: _190  and  _191
REMARK   78  A    between atoms: _201  and  _203
REMARK   79  A    between atoms: _203  and  _204
REMARK   80  A    between atoms: _206  and  _208
REMARK   81  A    between atoms: _208  and  _209
REMARK   82  A    between atoms: _208  and  _211
REMARK   83  A    between atoms: _211  and  _212
REMARK   84  A    between atoms: _217  and  _218
REMARK   85  A    between atoms: _220  and  _222
REMARK   86  A    between atoms: _222  and  _223
REMARK   87  A    between atoms: _222  and  _225
REMARK   88  A    between atoms: _225  and  _226
REMARK   89  A    between atoms: _226  and  _227
REMARK   90  A    between atoms: _227  and  _228
REMARK   91  A    between atoms: _228  and  _229
REMARK   92  A    between atoms: _233  and  _235
REMARK   93  A    between atoms: _235  and  _236
REMARK   94  A    between atoms: _235  and  _238
REMARK   95  A    between atoms: _238  and  _239
REMARK   96  A    between atoms: _242  and  _244
REMARK   97  A    between atoms: _244  and  _245
REMARK   98  A    between atoms: _244  and  _247
REMARK   99  A    between atoms: _247  and  _248
REMARK  100  A    between atoms: _248  and  _249
REMARK  101  A    between atoms: _249  and  _250
REMARK  102  A    between atoms: _259  and  _261
REMARK  103  A    between atoms: _261  and  _262
REMARK  104  A    between atoms: _261  and  _264
REMARK  105  A    between atoms: _264  and  _265
REMARK  106  A    between atoms: _268  and  _270
REMARK  107  A    between atoms: _270  and  _271
REMARK  108  A    between atoms: _270  and  _273
REMARK  109  A    between atoms: _273  and  _274
REMARK  110  A    between atoms: _274  and  _275
REMARK  111  A    between atoms: _275  and  _276
REMARK  112  A    between atoms: _276  and  _277
REMARK  113  A    between atoms: _281  and  _283
REMARK  114  A    between atoms: _283  and  _284
REMARK  115  A    between atoms: _283  and  _286
REMARK  116  A    between atoms: _286  and  _287
REMARK  117  A    between atoms: _290  and  _292
REMARK  118  A    between atoms: _292  and  _293
REMARK  119  A    between atoms: _292  and  _295
REMARK  120  A    between atoms: _295  and  _296
REMARK  121  A    between atoms: _296  and  _297
REMARK  122  A    between atoms: _302  and  _304
REMARK  123  A    between atoms: _304  and  _305
REMARK  124  A    between atoms: _304  and  _307
REMARK  125  A    between atoms: _307  and  _308
REMARK  126  A    between atoms: _311  and  _313
REMARK  127  A    between atoms: _313  and  _314
REMARK  128  A    between atoms: _313  and  _316
REMARK  129  A    between atoms: _316  and  _317
REMARK  130  A    between atoms: _322  and  _323
REMARK  131  A    between atoms: _325  and  _327
REMARK  132  A    between atoms: _327  and  _328
REMARK  133  A    between atoms: _327  and  _330
REMARK  134  A    between atoms: _330  and  _331
REMARK  135  A    between atoms: _334  and  _336
REMARK  136  A    between atoms: _336  and  _337
REMARK  137  A    between atoms: _336  and  _339
REMARK  138  A    between atoms: _341  and  _343
REMARK  139  A    between atoms: _343  and  _344
REMARK  140  A    between atoms: _347  and  _349
REMARK  141  A    between atoms: _349  and  _350
REMARK  142  A    between atoms: _349  and  _352
REMARK  143  A    between atoms: _352  and  _353
REMARK  144  A    between atoms: _356  and  _358
REMARK  145  A    between atoms: _358  and  _359
REMARK  146  A    between atoms: _362  and  _364
REMARK  147  A    between atoms: _364  and  _365
REMARK  148  A    between atoms: _364  and  _367
REMARK  149  A    between atoms: _367  and  _368
REMARK  150  A    between atoms: _368  and  _482
REMARK  151  A    between atoms: _369  and  _371
REMARK  152  A    between atoms: _371  and  _372
REMARK  153  A    between atoms: _371  and  _374
REMARK  154  A    between atoms: _374  and  _375
REMARK  155  A    between atoms: _375  and  _376
REMARK  156  A    between atoms: _376  and  _377
REMARK  157  A    between atoms: _377  and  _378
REMARK  158  A    between atoms: _382  and  _384
REMARK  159  A    between atoms: _384  and  _385
REMARK  160  A    between atoms: _387  and  _389
REMARK  161  A    between atoms: _389  and  _390
REMARK  162  A    between atoms: _389  and  _392
REMARK  163  A    between atoms: _392  and  _393
REMARK  164  A    between atoms: _396  and  _398
REMARK  165  A    between atoms: _398  and  _399
REMARK  166  A    between atoms: _398  and  _401
REMARK  167  A    between atoms: _401  and  _402
REMARK  168  A    between atoms: _404  and  _406
REMARK  169  A    between atoms: _406  and  _407
REMARK  170  A    between atoms: _409  and  _411
REMARK  171  A    between atoms: _411  and  _412
REMARK  172  A    between atoms: _414  and  _416
REMARK  173  A    between atoms: _416  and  _417
REMARK  174  A    between atoms: _416  and  _419
REMARK  175  A    between atoms: _419  and  _420
REMARK  176  A    between atoms: _423  and  _425
REMARK  177  A    between atoms: _425  and  _426
REMARK  178  A    between atoms: _425  and  _428
REMARK  179  A    between atoms: _428  and  _429
REMARK  180  A    between atoms: _432  and  _434
REMARK  181  A    between atoms: _434  and  _435
REMARK  182  A    between atoms: _434  and  _437
REMARK  183  A    between atoms: _437  and  _438
REMARK  184  A    between atoms: _440  and  _442
REMARK  185  A    between atoms: _442  and  _443
REMARK  186  A    between atoms: _442  and  _445
REMARK  187  A    between atoms: _445  and  _446
REMARK  188  A    between atoms: _456  and  _458
REMARK  189  A    between atoms: _458  and  _459
REMARK  190  A    between atoms: _461  and  _463
REMARK  191  A    between atoms: _463  and  _464
REMARK  192  A    between atoms: _463  and  _466
REMARK  193  A    between atoms: _466  and  _467
REMARK  194  A    between atoms: _467  and  _468
REMARK  195  A    between atoms: _471  and  _473
REMARK  196  A    between atoms: _473  and  _474
REMARK  197  A    between atoms: _476  and  _478
REMARK  198  A    between atoms: _478  and  _479
REMARK  199  A    between atoms: _478  and  _481
REMARK  200  A    between atoms: _481  and  _482
REMARK  201  A    between atoms: _483  and  _485
REMARK  202  A    between atoms: _485  and  _486
REMARK  203  A    between atoms: _489  and  _491
REMARK  204  A    between atoms: _491  and  _492
REMARK  205  A    between atoms: _491  and  _494
REMARK  206  A    between atoms: _494  and  _495
REMARK  207  A    between atoms: _495  and  _496
REMARK  208  A    between atoms: _501  and  _503
REMARK  209  A    between atoms: _503  and  _504
REMARK  210  A    between atoms: _503  and  _506
REMARK  211  A    between atoms: _506  and  _507
REMARK  212  A    between atoms: _507  and  _508
REMARK  213  A    between atoms: _508  and  _509
REMARK  214  A    between atoms: _519  and  _520
REMARK  215  A    between atoms: _525  and  _527
REMARK  216  A    between atoms: _527  and  _528
REMARK  217  A    between atoms: _530  and  _532
REMARK  218  A    between atoms: _532  and  _533
REMARK  219  A    between atoms: _532  and  _535
REMARK  220  A    between atoms: _538  and  _540
REMARK  221  A    between atoms: _540  and  _541
REMARK  222  A    between atoms: _540  and  _543
REMARK  223  A    between atoms: _543  and  _544
REMARK  224  A    between atoms: _549  and  _550
REMARK  225  A    between atoms: _552  and  _554
REMARK  226  A    between atoms: _554  and  _555
REMARK  227  A    between atoms: _554  and  _557
REMARK  228  A    between atoms: _557  and  _558
REMARK                            x       y       z     vdW  Elec       q    Type
REMARK                         _______ _______ _______ _____ _____    ______ ____
ROOT
ATOM      1  O   HOH     1     -54.874  -1.327 -33.041  0.00  0.00    +0.000 OA
ENDROOT
TORSDOF 0
REMARK  Name = ../refined-set-2016/4crc/4crc_pocket.pdb
REMARK  228 active torsions:
REMARK  status: ('A' for Active; 'I' for Inactive)
REMARK    1  A    between atoms: _1  and  _5
REMARK    2  A    between atoms: _5  and  _6
REMARK    3  A    between atoms: _5  and  _8
REMARK    4  A    between atoms: _8  and  _9
REMARK    5  A    between atoms: _12  and  _14
REMARK    6  A    between atoms: _14  and  _15
REMARK    7  A    between atoms: _14  and  _17
REMARK    8  A    between atoms: _20  and  _22
REMARK    9  A    between atoms: _22  and  _23
REMARK   10  A    between atoms: _22  and  _25
REMARK   11  A    between atoms: _25  and  _26
REMARK   12  A    between atoms: _26  and  _27
REMARK   13  A    between atoms: _27  and  _28
REMARK   14  A    between atoms: _37  and  _39
REMARK   15  A    between atoms: _39  and  _40
REMARK   16  A    between atoms: _39  and  _42
REMARK   17  A    between atoms: _42  and  _43
REMARK   18  A    between atoms: _48  and  _50
REMARK   19  A    between atoms: _50  and  _51
REMARK   20  A    between atoms: _50  and  _53
REMARK   21  A    between atoms: _53  and  _54
REMARK   22  A    between atoms: _57  and  _59
REMARK   23  A    between atoms: _59  and  _60
REMARK   24  A    between atoms: _59  and  _62
REMARK   25  A    between atoms: _62  and  _63
REMARK   26  A    between atoms: _63  and  _98
REMARK   27  A    between atoms: _64  and  _66
REMARK   28  A    between atoms: _66  and  _67
REMARK   29  A    between atoms: _69  and  _71
REMARK   30  A    between atoms: _71  and  _72
REMARK   31  A    between atoms: _75  and  _77
REMARK   32  A    between atoms: _77  and  _78
REMARK   33  A    between atoms: _81  and  _83
REMARK   34  A    between atoms: _83  and  _84
REMARK   35  A    between atoms: _83  and  _86
REMARK   36  A    between atoms: _86  and  _87
REMARK   37  A    between atoms: _92  and  _94
REMARK   38  A    between atoms: _94  and  _95
REMARK   39  A    between atoms: _94  and  _97
REMARK   40  A    between atoms: _97  and  _98
REMARK   41  A    between atoms: _99  and  _101
REMARK   42  A    between atoms: _101  and  _102
REMARK   43  A    between atoms: _101  and  _104
REMARK   44  A    between atoms: _104  and  _105
REMARK   45  A    between atoms: _111  and  _113
REMARK   46  A    between atoms: _113  and  _114
REMARK   47  A    between atoms: _113  and  _116
REMARK   48  A    between atoms: _116  and  _117
REMARK   49  A    between atoms: _122  and  _123
REMARK   50  A    between atoms: _125  and  _127
REMARK   51  A    between atoms: _127  and  _128
REMARK   52  A    between atoms: _130  and  _132
REMARK   53  A    between atoms: _132  and  _133
REMARK   54  A    between atoms: _132  and  _135
REMARK   55  A    between atoms: _138  and  _140
REMARK   56  A    between atoms: _140  and  _141
REMARK   57  A    between atoms: _140  and  _143
REMARK   58  A    between atoms: _143  and  _144
REMARK   59  A    between atoms: _149  and  _150
REMARK   60  A    between atoms: _152  and  _154
REMARK   61  A    between atoms: _154  and  _155
REMARK   62  A    between atoms: _158  and  _160
REMARK   63  A    between atoms: _160  and  _161
REMARK   64  A    between atoms: _160  and  _163
REMARK   65  A    between atoms: _163  and  _164
REMARK   66  A    between atoms: _164  and  _165
REMARK   67  A    between atoms: _168  and  _170
REMARK   68  A    between atoms: _170  and  _171
REMARK   69  A    between atoms: _170  and  _173
REMARK   70  A    between atoms: _173  and  _174
REMARK   71  A    between atoms: _177  and  _179
REMARK   72  A    between atoms: _179  and  _180
REMARK   73  A    between atoms: _179  and  _182
REMARK   74  A    between atoms: _185  and  _187
REMARK   75  A    between atoms: _187  and  _188
REMARK   76  A    between atoms: _187  and  _190
REMARK   77  A    between atoms: _190  and  _191
REMARK   78  A    between atoms: _201  and  _203
REMARK   79  A    between atoms: _203  and  _204
REMARK   80  A    between atoms: _206  and  _208
REMARK   81  A    between atoms: _208  and  _209
REMARK   82  A    between atoms: _208  and  _211
REMARK   83  A    between atoms: _211  and  _212
REMARK   84  A    between atoms: _217  and  _218
REMARK   85  A    between atoms: _220  and  _222
REMARK   86  A    between atoms: _222  and  _223
REMARK   87  A    between atoms: _222  and  _225
REMARK   88  A    between atoms: _225  and  _226
REMARK   89  A    between atoms: _226  and  _227
REMARK   90  A    between atoms: _227  and  _228
REMARK   91  A    between atoms: _228  and  _229
REMARK   92  A    between atoms: _233  and  _235
REMARK   93  A    between atoms: _235  and  _236
REMARK   94  A    between atoms: _235  and  _238
REMARK   95  A    between atoms: _238  and  _239
REMARK   96  A    between atoms: _242  and  _244
REMARK   97  A    between atoms: _244  and  _245
REMARK   98  A    between atoms: _244  and  _247
REMARK   99  A    between atoms: _247  and  _248
REMARK  100  A    between atoms: _248  and  _249
REMARK  101  A    between atoms: _249  and  _250
REMARK  102  A    between atoms: _259  and  _261
REMARK  103  A    between atoms: _261  and  _262
REMARK  104  A    between atoms: _261  and  _264
REMARK  105  A    between atoms: _264  and  _265
REMARK  106  A    between atoms: _268  and  _270
REMARK  107  A    between atoms: _270  and  _271
REMARK  108  A    between atoms: _270  and  _273
REMARK  109  A    between atoms: _273  and  _274
REMARK  110  A    between atoms: _274  and  _275
REMARK  111  A    between atoms: _275  and  _276
REMARK  112  A    between atoms: _276  and  _277
REMARK  113  A    between atoms: _281  and  _283
REMARK  114  A    between atoms: _283  and  _284
REMARK  115  A    between atoms: _283  and  _286
REMARK  116  A    between atoms: _286  and  _287
REMARK  117  A    between atoms: _290  and  _292
REMARK  118  A    between atoms: _292  and  _293
REMARK  119  A    between atoms: _292  and  _295
REMARK  120  A    between atoms: _295  and  _296
REMARK  121  A    between atoms: _296  and  _297
REMARK  122  A    between atoms: _302  and  _304
REMARK  123  A    between atoms: _304  and  _305
REMARK  124  A    between atoms: _304  and  _307
REMARK  125  A    between atoms: _307  and  _308
REMARK  126  A    between atoms: _311  and  _313
REMARK  127  A    between atoms: _313  and  _314
REMARK  128  A    between atoms: _313  and  _316
REMARK  129  A    between atoms: _316  and  _317
REMARK  130  A    between atoms: _322  and  _323
REMARK  131  A    between atoms: _325  and  _327
REMARK  132  A    between atoms: _327  and  _328
REMARK  133  A    between atoms: _327  and  _330
REMARK  134  A    between atoms: _330  and  _331
REMARK  135  A    between atoms: _334  and  _336
REMARK  136  A    between atoms: _336  and  _337
REMARK  137  A    between atoms: _336  and  _339
REMARK  138  A    between atoms: _341  and  _343
REMARK  139  A    between atoms: _343  and  _344
REMARK  140  A    between atoms: _347  and  _349
REMARK  141  A    between atoms: _349  and  _350
REMARK  142  A    between atoms: _349  and  _352
REMARK  143  A    between atoms: _352  and  _353
REMARK  144  A    between atoms: _356  and  _358
REMARK  145  A    between atoms: _358  and  _359
REMARK  146  A    between atoms: _362  and  _364
REMARK  147  A    between atoms: _364  and  _365
REMARK  148  A    between atoms: _364  and  _367
REMARK  149  A    between atoms: _367  and  _368
REMARK  150  A    between atoms: _368  and  _482
REMARK  151  A    between atoms: _369  and  _371
REMARK  152  A    between atoms: _371  and  _372
REMARK  153  A    between atoms: _371  and  _374
REMARK  154  A    between atoms: _374  and  _375
REMARK  155  A    between atoms: _375  and  _376
REMARK  156  A    between atoms: _376  and  _377
REMARK  157  A    between atoms: _377  and  _378
REMARK  158  A    between atoms: _382  and  _384
REMARK  159  A    between atoms: _384  and  _385
REMARK  160  A    between atoms: _387  and  _389
REMARK  161  A    between atoms: _389  and  _390
REMARK  162  A    between atoms: _389  and  _392
REMARK  163  A    between atoms: _392  and  _393
REMARK  164  A    between atoms: _396  and  _398
REMARK  165  A    between atoms: _398  and  _399
REMARK  166  A    between atoms: _398  and  _401
REMARK  167  A    between atoms: _401  and  _402
REMARK  168  A    between atoms: _404  and  _406
REMARK  169  A    between atoms: _406  and  _407
REMARK  170  A    between atoms: _409  and  _411
REMARK  171  A    between atoms: _411  and  _412
REMARK  172  A    between atoms: _414  and  _416
REMARK  173  A    between atoms: _416  and  _417
REMARK  174  A    between atoms: _416  and  _419
REMARK  175  A    between atoms: _419  and  _420
REMARK  176  A    between atoms: _423  and  _425
REMARK  177  A    between atoms: _425  and  _426
REMARK  178  A    between atoms: _425  and  _428
REMARK  179  A    between atoms: _428  and  _429
REMARK  180  A    between atoms: _432  and  _434
REMARK  181  A    between atoms: _434  and  _435
REMARK  182  A    between atoms: _434  and  _437
REMARK  183  A    between atoms: _437  and  _438
REMARK  184  A    between atoms: _440  and  _442
REMARK  185  A    between atoms: _442  and  _443
REMARK  186  A    between atoms: _442  and  _445
REMARK  187  A    between atoms: _445  and  _446
REMARK  188  A    between atoms: _456  and  _458
REMARK  189  A    between atoms: _458  and  _459
REMARK  190  A    between atoms: _461  and  _463
REMARK  191  A    between atoms: _463  and  _464
REMARK  192  A    between atoms: _463  and  _466
REMARK  193  A    between atoms: _466  and  _467
REMARK  194  A    between atoms: _467  and  _468
REMARK  195  A    between atoms: _471  and  _473
REMARK  196  A    between atoms: _473  and  _474
REMARK  197  A    between atoms: _476  and  _478
REMARK  198  A    between atoms: _478  and  _479
REMARK  199  A    between atoms: _478  and  _481
REMARK  200  A    between atoms: _481  and  _482
REMARK  201  A    between atoms: _483  and  _485
REMARK  202  A    between atoms: _485  and  _486
REMARK  203  A    between atoms: _489  and  _491
REMARK  204  A    between atoms: _491  and  _492
REMARK  205  A    between atoms: _491  and  _494
REMARK  206  A    between atoms: _494  and  _495
REMARK  207  A    between atoms: _495  and  _496
REMARK  208  A    between atoms: _501  and  _503
REMARK  209  A    between atoms: _503  and  _504
REMARK  210  A    between atoms: _503  and  _506
REMARK  211  A    between atoms: _506  and  _507
REMARK  212  A    between atoms: _507  and  _508
REMARK  213  A    between atoms: _508  and  _509
REMARK  214  A    between atoms: _519  and  _520
REMARK  215  A    between atoms: _525  and  _527
REMARK  216  A    between atoms: _527  and  _528
REMARK  217  A    between atoms: _530  and  _532
REMARK  218  A    between atoms: _532  and  _533
REMARK  219  A    between atoms: _532  and  _535
REMARK  220  A    between atoms: _538  and  _540
REMARK  221  A    between atoms: _540  and  _541
REMARK  222  A    between atoms: _540  and  _543
REMARK  223  A    between atoms: _543  and  _544
REMARK  224  A    between atoms: _549  and  _550
REMARK  225  A    between atoms: _552  and  _554
REMARK  226  A    between atoms: _554  and  _555
REMARK  227  A    between atoms: _554  and  _557
REMARK  228  A    between atoms: _557  and  _558
REMARK                            x       y       z     vdW  Elec       q    Type
REMARK                         _______ _______ _______ _____ _____    ______ ____
ROOT
ATOM      1  O   HOH     1     -46.582  -3.925 -27.831  0.00  0.00    +0.000 OA
ENDROOT
TORSDOF 0
REMARK  Name = ../refined-set-2016/4crc/4crc_pocket.pdb
REMARK  228 active torsions:
REMARK  status: ('A' for Active; 'I' for Inactive)
REMARK    1  A    between atoms: _1  and  _5
REMARK    2  A    between atoms: _5  and  _6
REMARK    3  A    between atoms: _5  and  _8
REMARK    4  A    between atoms: _8  and  _9
REMARK    5  A    between atoms: _12  and  _14
REMARK    6  A    between atoms: _14  and  _15
REMARK    7  A    between atoms: _14  and  _17
REMARK    8  A    between atoms: _20  and  _22
REMARK    9  A    between atoms: _22  and  _23
REMARK   10  A    between atoms: _22  and  _25
REMARK   11  A    between atoms: _25  and  _26
REMARK   12  A    between atoms: _26  and  _27
REMARK   13  A    between atoms: _27  and  _28
REMARK   14  A    between atoms: _37  and  _39
REMARK   15  A    between atoms: _39  and  _40
REMARK   16  A    between atoms: _39  and  _42
REMARK   17  A    between atoms: _42  and  _43
REMARK   18  A    between atoms: _48  and  _50
REMARK   19  A    between atoms: _50  and  _51
REMARK   20  A    between atoms: _50  and  _53
REMARK   21  A    between atoms: _53  and  _54
REMARK   22  A    between atoms: _57  and  _59
REMARK   23  A    between atoms: _59  and  _60
REMARK   24  A    between atoms: _59  and  _62
REMARK   25  A    between atoms: _62  and  _63
REMARK   26  A    between atoms: _63  and  _98
REMARK   27  A    between atoms: _64  and  _66
REMARK   28  A    between atoms: _66  and  _67
REMARK   29  A    between atoms: _69  and  _71
REMARK   30  A    between atoms: _71  and  _72
REMARK   31  A    between atoms: _75  and  _77
REMARK   32  A    between atoms: _77  and  _78
REMARK   33  A    between atoms: _81  and  _83
REMARK   34  A    between atoms: _83  and  _84
REMARK   35  A    between atoms: _83  and  _86
REMARK   36  A    between atoms: _86  and  _87
REMARK   37  A    between atoms: _92  and  _94
REMARK   38  A    between atoms: _94  and  _95
REMARK   39  A    between atoms: _94  and  _97
REMARK   40  A    between atoms: _97  and  _98
REMARK   41  A    between atoms: _99  and  _101
REMARK   42  A    between atoms: _101  and  _102
REMARK   43  A    between atoms: _101  and  _104
REMARK   44  A    between atoms: _104  and  _105
REMARK   45  A    between atoms: _111  and  _113
REMARK   46  A    between atoms: _113  and  _114
REMARK   47  A    between atoms: _113  and  _116
REMARK   48  A    between atoms: _116  and  _117
REMARK   49  A    between atoms: _122  and  _123
REMARK   50  A    between atoms: _125  and  _127
REMARK   51  A    between atoms: _127  and  _128
REMARK   52  A    between atoms: _130  and  _132
REMARK   53  A    between atoms: _132  and  _133
REMARK   54  A    between atoms: _132  and  _135
REMARK   55  A    between atoms: _138  and  _140
REMARK   56  A    between atoms: _140  and  _141
REMARK   57  A    between atoms: _140  and  _143
REMARK   58  A    between atoms: _143  and  _144
REMARK   59  A    between atoms: _149  and  _150
REMARK   60  A    between atoms: _152  and  _154
REMARK   61  A    between atoms: _154  and  _155
REMARK   62  A    between atoms: _158  and  _160
REMARK   63  A    between atoms: _160  and  _161
REMARK   64  A    between atoms: _160  and  _163
REMARK   65  A    between atoms: _163  and  _164
REMARK   66  A    between atoms: _164  and  _165
REMARK   67  A    between atoms: _168  and  _170
REMARK   68  A    between atoms: _170  and  _171
REMARK   69  A    between atoms: _170  and  _173
REMARK   70  A    between atoms: _173  and  _174
REMARK   71  A    between atoms: _177  and  _179
REMARK   72  A    between atoms: _179  and  _180
REMARK   73  A    between atoms: _179  and  _182
REMARK   74  A    between atoms: _185  and  _187
REMARK   75  A    between atoms: _187  and  _188
REMARK   76  A    between atoms: _187  and  _190
REMARK   77  A    between atoms: _190  and  _191
REMARK   78  A    between atoms: _201  and  _203
REMARK   79  A    between atoms: _203  and  _204
REMARK   80  A    between atoms: _206  and  _208
REMARK   81  A    between atoms: _208  and  _209
REMARK   82  A    between atoms: _208  and  _211
REMARK   83  A    between atoms: _211  and  _212
REMARK   84  A    between atoms: _217  and  _218
REMARK   85  A    between atoms: _220  and  _222
REMARK   86  A    between atoms: _222  and  _223
REMARK   87  A    between atoms: _222  and  _225
REMARK   88  A    between atoms: _225  and  _226
REMARK   89  A    between atoms: _226  and  _227
REMARK   90  A    between atoms: _227  and  _228
REMARK   91  A    between atoms: _228  and  _229
REMARK   92  A    between atoms: _233  and  _235
REMARK   93  A    between atoms: _235  and  _236
REMARK   94  A    between atoms: _235  and  _238
REMARK   95  A    between atoms: _238  and  _239
REMARK   96  A    between atoms: _242  and  _244
REMARK   97  A    between atoms: _244  and  _245
REMARK   98  A    between atoms: _244  and  _247
REMARK   99  A    between atoms: _247  and  _248
REMARK  100  A    between atoms: _248  and  _249
REMARK  101  A    between atoms: _249  and  _250
REMARK  102  A    between atoms: _259  and  _261
REMARK  103  A    between atoms: _261  and  _262
REMARK  104  A    between atoms: _261  and  _264
REMARK  105  A    between atoms: _264  and  _265
REMARK  106  A    between atoms: _268  and  _270
REMARK  107  A    between atoms: _270  and  _271
REMARK  108  A    between atoms: _270  and  _273
REMARK  109  A    between atoms: _273  and  _274
REMARK  110  A    between atoms: _274  and  _275
REMARK  111  A    between atoms: _275  and  _276
REMARK  112  A    between atoms: _276  and  _277
REMARK  113  A    between atoms: _281  and  _283
REMARK  114  A    between atoms: _283  and  _284
REMARK  115  A    between atoms: _283  and  _286
REMARK  116  A    between atoms: _286  and  _287
REMARK  117  A    between atoms: _290  and  _292
REMARK  118  A    between atoms: _292  and  _293
REMARK  119  A    between atoms: _292  and  _295
REMARK  120  A    between atoms: _295  and  _296
REMARK  121  A    between atoms: _296  and  _297
REMARK  122  A    between atoms: _302  and  _304
REMARK  123  A    between atoms: _304  and  _305
REMARK  124  A    between atoms: _304  and  _307
REMARK  125  A    between atoms: _307  and  _308
REMARK  126  A    between atoms: _311  and  _313
REMARK  127  A    between atoms: _313  and  _314
REMARK  128  A    between atoms: _313  and  _316
REMARK  129  A    between atoms: _316  and  _317
REMARK  130  A    between atoms: _322  and  _323
REMARK  131  A    between atoms: _325  and  _327
REMARK  132  A    between atoms: _327  and  _328
REMARK  133  A    between atoms: _327  and  _330
REMARK  134  A    between atoms: _330  and  _331
REMARK  135  A    between atoms: _334  and  _336
REMARK  136  A    between atoms: _336  and  _337
REMARK  137  A    between atoms: _336  and  _339
REMARK  138  A    between atoms: _341  and  _343
REMARK  139  A    between atoms: _343  and  _344
REMARK  140  A    between atoms: _347  and  _349
REMARK  141  A    between atoms: _349  and  _350
REMARK  142  A    between atoms: _349  and  _352
REMARK  143  A    between atoms: _352  and  _353
REMARK  144  A    between atoms: _356  and  _358
REMARK  145  A    between atoms: _358  and  _359
REMARK  146  A    between atoms: _362  and  _364
REMARK  147  A    between atoms: _364  and  _365
REMARK  148  A    between atoms: _364  and  _367
REMARK  149  A    between atoms: _367  and  _368
REMARK  150  A    between atoms: _368  and  _482
REMARK  151  A    between atoms: _369  and  _371
REMARK  152  A    between atoms: _371  and  _372
REMARK  153  A    between atoms: _371  and  _374
REMARK  154  A    between atoms: _374  and  _375
REMARK  155  A    between atoms: _375  and  _376
REMARK  156  A    between atoms: _376  and  _377
REMARK  157  A    between atoms: _377  and  _378
REMARK  158  A    between atoms: _382  and  _384
REMARK  159  A    between atoms: _384  and  _385
REMARK  160  A    between atoms: _387  and  _389
REMARK  161  A    between atoms: _389  and  _390
REMARK  162  A    between atoms: _389  and  _392
REMARK  163  A    between atoms: _392  and  _393
REMARK  164  A    between atoms: _396  and  _398
REMARK  165  A    between atoms: _398  and  _399
REMARK  166  A    between atoms: _398  and  _401
REMARK  167  A    between atoms: _401  and  _402
REMARK  168  A    between atoms: _404  and  _406
REMARK  169  A    between atoms: _406  and  _407
REMARK  170  A    between atoms: _409  and  _411
REMARK  171  A    between atoms: _411  and  _412
REMARK  172  A    between atoms: _414  and  _416
REMARK  173  A    between atoms: _416  and  _417
REMARK  174  A    between atoms: _416  and  _419
REMARK  175  A    between atoms: _419  and  _420
REMARK  176  A    between atoms: _423  and  _425
REMARK  177  A    between atoms: _425  and  _426
REMARK  178  A    between atoms: _425  and  _428
REMARK  179  A    between atoms: _428  and  _429
REMARK  180  A    between atoms: _432  and  _434
REMARK  181  A    between atoms: _434  and  _435
REMARK  182  A    between atoms: _434  and  _437
REMARK  183  A    between atoms: _437  and  _438
REMARK  184  A    between atoms: _440  and  _442
REMARK  185  A    between atoms: _442  and  _443
REMARK  186  A    between atoms: _442  and  _445
REMARK  187  A    between atoms: _445  and  _446
REMARK  188  A    between atoms: _456  and  _458
REMARK  189  A    between atoms: _458  and  _459
REMARK  190  A    between atoms: _461  and  _463
REMARK  191  A    between atoms: _463  and  _464
REMARK  192  A    between atoms: _463  and  _466
REMARK  193  A    between atoms: _466  and  _467
REMARK  194  A    between atoms: _467  and  _468
REMARK  195  A    between atoms: _471  and  _473
REMARK  196  A    between atoms: _473  and  _474
REMARK  197  A    between atoms: _476  and  _478
REMARK  198  A    between atoms: _478  and  _479
REMARK  199  A    between atoms: _478  and  _481
REMARK  200  A    between atoms: _481  and  _482
REMARK  201  A    between atoms: _483  and  _485
REMARK  202  A    between atoms: _485  and  _486
REMARK  203  A    between atoms: _489  and  _491
REMARK  204  A    between atoms: _491  and  _492
REMARK  205  A    between atoms: _491  and  _494
REMARK  206  A    between atoms: _494  and  _495
REMARK  207  A    between atoms: _495  and  _496
REMARK  208  A    between atoms: _501  and  _503
REMARK  209  A    between atoms: _503  and  _504
REMARK  210  A    between atoms: _503  and  _506
REMARK  211  A    between atoms: _506  and  _507
REMARK  212  A    between atoms: _507  and  _508
REMARK  213  A    between atoms: _508  and  _509
REMARK  214  A    between atoms: _519  and  _520
REMARK  215  A    between atoms: _525  and  _527
REMARK  216  A    between atoms: _527  and  _528
REMARK  217  A    between atoms: _530  and  _532
REMARK  218  A    between atoms: _532  and  _533
REMARK  219  A    between atoms: _532  and  _535
REMARK  220  A    between atoms: _538  and  _540
REMARK  221  A    between atoms: _540  and  _541
REMARK  222  A    between atoms: _540  and  _543
REMARK  223  A    between atoms: _543  and  _544
REMARK  224  A    between atoms: _549  and  _550
REMARK  225  A    between atoms: _552  and  _554
REMARK  226  A    between atoms: _554  and  _555
REMARK  227  A    between atoms: _554  and  _557
REMARK  228  A    between atoms: _557  and  _558
REMARK                            x       y       z     vdW  Elec       q    Type
REMARK                         _______ _______ _______ _____ _____    ______ ____
ROOT
ATOM      1  O   HOH     1     -50.089  -9.112 -27.112  0.00  0.00    +0.000 OA
ENDROOT
TORSDOF 0
REMARK  Name = ../refined-set-2016/4crc/4crc_pocket.pdb
REMARK  228 active torsions:
REMARK  status: ('A' for Active; 'I' for Inactive)
REMARK    1  A    between atoms: _1  and  _5
REMARK    2  A    between atoms: _5  and  _6
REMARK    3  A    between atoms: _5  and  _8
REMARK    4  A    between atoms: _8  and  _9
REMARK    5  A    between atoms: _12  and  _14
REMARK    6  A    between atoms: _14  and  _15
REMARK    7  A    between atoms: _14  and  _17
REMARK    8  A    between atoms: _20  and  _22
REMARK    9  A    between atoms: _22  and  _23
REMARK   10  A    between atoms: _22  and  _25
REMARK   11  A    between atoms: _25  and  _26
REMARK   12  A    between atoms: _26  and  _27
REMARK   13  A    between atoms: _27  and  _28
REMARK   14  A    between atoms: _37  and  _39
REMARK   15  A    between atoms: _39  and  _40
REMARK   16  A    between atoms: _39  and  _42
REMARK   17  A    between atoms: _42  and  _43
REMARK   18  A    between atoms: _48  and  _50
REMARK   19  A    between atoms: _50  and  _51
REMARK   20  A    between atoms: _50  and  _53
REMARK   21  A    between atoms: _53  and  _54
REMARK   22  A    between atoms: _57  and  _59
REMARK   23  A    between atoms: _59  and  _60
REMARK   24  A    between atoms: _59  and  _62
REMARK   25  A    between atoms: _62  and  _63
REMARK   26  A    between atoms: _63  and  _98
REMARK   27  A    between atoms: _64  and  _66
REMARK   28  A    between atoms: _66  and  _67
REMARK   29  A    between atoms: _69  and  _71
REMARK   30  A    between atoms: _71  and  _72
REMARK   31  A    between atoms: _75  and  _77
REMARK   32  A    between atoms: _77  and  _78
REMARK   33  A    between atoms: _81  and  _83
REMARK   34  A    between atoms: _83  and  _84
REMARK   35  A    between atoms: _83  and  _86
REMARK   36  A    between atoms: _86  and  _87
REMARK   37  A    between atoms: _92  and  _94
REMARK   38  A    between atoms: _94  and  _95
REMARK   39  A    between atoms: _94  and  _97
REMARK   40  A    between atoms: _97  and  _98
REMARK   41  A    between atoms: _99  and  _101
REMARK   42  A    between atoms: _101  and  _102
REMARK   43  A    between atoms: _101  and  _104
REMARK   44  A    between atoms: _104  and  _105
REMARK   45  A    between atoms: _111  and  _113
REMARK   46  A    between atoms: _113  and  _114
REMARK   47  A    between atoms: _113  and  _116
REMARK   48  A    between atoms: _116  and  _117
REMARK   49  A    between atoms: _122  and  _123
REMARK   50  A    between atoms: _125  and  _127
REMARK   51  A    between atoms: _127  and  _128
REMARK   52  A    between atoms: _130  and  _132
REMARK   53  A    between atoms: _132  and  _133
REMARK   54  A    between atoms: _132  and  _135
REMARK   55  A    between atoms: _138  and  _140
REMARK   56  A    between atoms: _140  and  _141
REMARK   57  A    between atoms: _140  and  _143
REMARK   58  A    between atoms: _143  and  _144
REMARK   59  A    between atoms: _149  and  _150
REMARK   60  A    between atoms: _152  and  _154
REMARK   61  A    between atoms: _154  and  _155
REMARK   62  A    between atoms: _158  and  _160
REMARK   63  A    between atoms: _160  and  _161
REMARK   64  A    between atoms: _160  and  _163
REMARK   65  A    between atoms: _163  and  _164
REMARK   66  A    between atoms: _164  and  _165
REMARK   67  A    between atoms: _168  and  _170
REMARK   68  A    between atoms: _170  and  _171
REMARK   69  A    between atoms: _170  and  _173
REMARK   70  A    between atoms: _173  and  _174
REMARK   71  A    between atoms: _177  and  _179
REMARK   72  A    between atoms: _179  and  _180
REMARK   73  A    between atoms: _179  and  _182
REMARK   74  A    between atoms: _185  and  _187
REMARK   75  A    between atoms: _187  and  _188
REMARK   76  A    between atoms: _187  and  _190
REMARK   77  A    between atoms: _190  and  _191
REMARK   78  A    between atoms: _201  and  _203
REMARK   79  A    between atoms: _203  and  _204
REMARK   80  A    between atoms: _206  and  _208
REMARK   81  A    between atoms: _208  and  _209
REMARK   82  A    between atoms: _208  and  _211
REMARK   83  A    between atoms: _211  and  _212
REMARK   84  A    between atoms: _217  and  _218
REMARK   85  A    between atoms: _220  and  _222
REMARK   86  A    between atoms: _222  and  _223
REMARK   87  A    between atoms: _222  and  _225
REMARK   88  A    between atoms: _225  and  _226
REMARK   89  A    between atoms: _226  and  _227
REMARK   90  A    between atoms: _227  and  _228
REMARK   91  A    between atoms: _228  and  _229
REMARK   92  A    between atoms: _233  and  _235
REMARK   93  A    between atoms: _235  and  _236
REMARK   94  A    between atoms: _235  and  _238
REMARK   95  A    between atoms: _238  and  _239
REMARK   96  A    between atoms: _242  and  _244
REMARK   97  A    between atoms: _244  and  _245
REMARK   98  A    between atoms: _244  and  _247
REMARK   99  A    between atoms: _247  and  _248
REMARK  100  A    between atoms: _248  and  _249
REMARK  101  A    between atoms: _249  and  _250
REMARK  102  A    between atoms: _259  and  _261
REMARK  103  A    between atoms: _261  and  _262
REMARK  104  A    between atoms: _261  and  _264
REMARK  105  A    between atoms: _264  and  _265
REMARK  106  A    between atoms: _268  and  _270
REMARK  107  A    between atoms: _270  and  _271
REMARK  108  A    between atoms: _270  and  _273
REMARK  109  A    between atoms: _273  and  _274
REMARK  110  A    between atoms: _274  and  _275
REMARK  111  A    between atoms: _275  and  _276
REMARK  112  A    between atoms: _276  and  _277
REMARK  113  A    between atoms: _281  and  _283
REMARK  114  A    between atoms: _283  and  _284
REMARK  115  A    between atoms: _283  and  _286
REMARK  116  A    between atoms: _286  and  _287
REMARK  117  A    between atoms: _290  and  _292
REMARK  118  A    between atoms: _292  and  _293
REMARK  119  A    between atoms: _292  and  _295
REMARK  120  A    between atoms: _295  and  _296
REMARK  121  A    between atoms: _296  and  _297
REMARK  122  A    between atoms: _302  and  _304
REMARK  123  A    between atoms: _304  and  _305
REMARK  124  A    between atoms: _304  and  _307
REMARK  125  A    between atoms: _307  and  _308
REMARK  126  A    between atoms: _311  and  _313
REMARK  127  A    between atoms: _313  and  _314
REMARK  128  A    between atoms: _313  and  _316
REMARK  129  A    between atoms: _316  and  _317
REMARK  130  A    between atoms: _322  and  _323
REMARK  131  A    between atoms: _325  and  _327
REMARK  132  A    between atoms: _327  and  _328
REMARK  133  A    between atoms: _327  and  _330
REMARK  134  A    between atoms: _330  and  _331
REMARK  135  A    between atoms: _334  and  _336
REMARK  136  A    between atoms: _336  and  _337
REMARK  137  A    between atoms: _336  and  _339
REMARK  138  A    between atoms: _341  and  _343
REMARK  139  A    between atoms: _343  and  _344
REMARK  140  A    between atoms: _347  and  _349
REMARK  141  A    between atoms: _349  and  _350
REMARK  142  A    between atoms: _349  and  _352
REMARK  143  A    between atoms: _352  and  _353
REMARK  144  A    between atoms: _356  and  _358
REMARK  145  A    between atoms: _358  and  _359
REMARK  146  A    between atoms: _362  and  _364
REMARK  147  A    between atoms: _364  and  _365
REMARK  148  A    between atoms: _364  and  _367
REMARK  149  A    between atoms: _367  and  _368
REMARK  150  A    between atoms: _368  and  _482
REMARK  151  A    between atoms: _369  and  _371
REMARK  152  A    between atoms: _371  and  _372
REMARK  153  A    between atoms: _371  and  _374
REMARK  154  A    between atoms: _374  and  _375
REMARK  155  A    between atoms: _375  and  _376
REMARK  156  A    between atoms: _376  and  _377
REMARK  157  A    between atoms: _377  and  _378
REMARK  158  A    between atoms: _382  and  _384
REMARK  159  A    between atoms: _384  and  _385
REMARK  160  A    between atoms: _387  and  _389
REMARK  161  A    between atoms: _389  and  _390
REMARK  162  A    between atoms: _389  and  _392
REMARK  163  A    between atoms: _392  and  _393
REMARK  164  A    between atoms: _396  and  _398
REMARK  165  A    between atoms: _398  and  _399
REMARK  166  A    between atoms: _398  and  _401
REMARK  167  A    between atoms: _401  and  _402
REMARK  168  A    between atoms: _404  and  _406
REMARK  169  A    between atoms: _406  and  _407
REMARK  170  A    between atoms: _409  and  _411
REMARK  171  A    between atoms: _411  and  _412
REMARK  172  A    between atoms: _414  and  _416
REMARK  173  A    between atoms: _416  and  _417
REMARK  174  A    between atoms: _416  and  _419
REMARK  175  A    between atoms: _419  and  _420
REMARK  176  A    between atoms: _423  and  _425
REMARK  177  A    between atoms: _425  and  _426
REMARK  178  A    between atoms: _425  and  _428
REMARK  179  A    between atoms: _428  and  _429
REMARK  180  A    between atoms: _432  and  _434
REMARK  181  A    between atoms: _434  and  _435
REMARK  182  A    between atoms: _434  and  _437
REMARK  183  A    between atoms: _437  and  _438
REMARK  184  A    between atoms: _440  and  _442
REMARK  185  A    between atoms: _442  and  _443
REMARK  186  A    between atoms: _442  and  _445
REMARK  187  A    between atoms: _445  and  _446
REMARK  188  A    between atoms: _456  and  _458
REMARK  189  A    between atoms: _458  and  _459
REMARK  190  A    between atoms: _461  and  _463
REMARK  191  A    between atoms: _463  and  _464
REMARK  192  A    between atoms: _463  and  _466
REMARK  193  A    between atoms: _466  and  _467
REMARK  194  A    between atoms: _467  and  _468
REMARK  195  A    between atoms: _471  and  _473
REMARK  196  A    between atoms: _473  and  _474
REMARK  197  A    between atoms: _476  and  _478
REMARK  198  A    between atoms: _478  and  _479
REMARK  199  A    between atoms: _478  and  _481
REMARK  200  A    between atoms: _481  and  _482
REMARK  201  A    between atoms: _483  and  _485
REMARK  202  A    between atoms: _485  and  _486
REMARK  203  A    between atoms: _489  and  _491
REMARK  204  A    between atoms: _491  and  _492
REMARK  205  A    between atoms: _491  and  _494
REMARK  206  A    between atoms: _494  and  _495
REMARK  207  A    between atoms: _495  and  _496
REMARK  208  A    between atoms: _501  and  _503
REMARK  209  A    between atoms: _503  and  _504
REMARK  210  A    between atoms: _503  and  _506
REMARK  211  A    between atoms: _506  and  _507
REMARK  212  A    between atoms: _507  and  _508
REMARK  213  A    between atoms: _508  and  _509
REMARK  214  A    between atoms: _519  and  _520
REMARK  215  A    between atoms: _525  and  _527
REMARK  216  A    between atoms: _527  and  _528
REMARK  217  A    between atoms: _530  and  _532
REMARK  218  A    between atoms: _532  and  _533
REMARK  219  A    between atoms: _532  and  _535
REMARK  220  A    between atoms: _538  and  _540
REMARK  221  A    between atoms: _540  and  _541
REMARK  222  A    between atoms: _540  and  _543
REMARK  223  A    between atoms: _543  and  _544
REMARK  224  A    between atoms: _549  and  _550
REMARK  225  A    between atoms: _552  and  _554
REMARK  226  A    between atoms: _554  and  _555
REMARK  227  A    between atoms: _554  and  _557
REMARK  228  A    between atoms: _557  and  _558
REMARK                            x       y       z     vdW  Elec       q    Type
REMARK                         _______ _______ _______ _____ _____    ______ ____
ROOT
ATOM      1  O   HOH     1     -49.942 -19.951 -31.225  0.00  0.00    +0.000 OA
ENDROOT
TORSDOF 0
REMARK  Name = ../refined-set-2016/4crc/4crc_pocket.pdb
REMARK  228 active torsions:
REMARK  status: ('A' for Active; 'I' for Inactive)
REMARK    1  A    between atoms: _1  and  _5
REMARK    2  A    between atoms: _5  and  _6
REMARK    3  A    between atoms: _5  and  _8
REMARK    4  A    between atoms: _8  and  _9
REMARK    5  A    between atoms: _12  and  _14
REMARK    6  A    between atoms: _14  and  _15
REMARK    7  A    between atoms: _14  and  _17
REMARK    8  A    between atoms: _20  and  _22
REMARK    9  A    between atoms: _22  and  _23
REMARK   10  A    between atoms: _22  and  _25
REMARK   11  A    between atoms: _25  and  _26
REMARK   12  A    between atoms: _26  and  _27
REMARK   13  A    between atoms: _27  and  _28
REMARK   14  A    between atoms: _37  and  _39
REMARK   15  A    between atoms: _39  and  _40
REMARK   16  A    between atoms: _39  and  _42
REMARK   17  A    between atoms: _42  and  _43
REMARK   18  A    between atoms: _48  and  _50
REMARK   19  A    between atoms: _50  and  _51
REMARK   20  A    between atoms: _50  and  _53
REMARK   21  A    between atoms: _53  and  _54
REMARK   22  A    between atoms: _57  and  _59
REMARK   23  A    between atoms: _59  and  _60
REMARK   24  A    between atoms: _59  and  _62
REMARK   25  A    between atoms: _62  and  _63
REMARK   26  A    between atoms: _63  and  _98
REMARK   27  A    between atoms: _64  and  _66
REMARK   28  A    between atoms: _66  and  _67
REMARK   29  A    between atoms: _69  and  _71
REMARK   30  A    between atoms: _71  and  _72
REMARK   31  A    between atoms: _75  and  _77
REMARK   32  A    between atoms: _77  and  _78
REMARK   33  A    between atoms: _81  and  _83
REMARK   34  A    between atoms: _83  and  _84
REMARK   35  A    between atoms: _83  and  _86
REMARK   36  A    between atoms: _86  and  _87
REMARK   37  A    between atoms: _92  and  _94
REMARK   38  A    between atoms: _94  and  _95
REMARK   39  A    between atoms: _94  and  _97
REMARK   40  A    between atoms: _97  and  _98
REMARK   41  A    between atoms: _99  and  _101
REMARK   42  A    between atoms: _101  and  _102
REMARK   43  A    between atoms: _101  and  _104
REMARK   44  A    between atoms: _104  and  _105
REMARK   45  A    between atoms: _111  and  _113
REMARK   46  A    between atoms: _113  and  _114
REMARK   47  A    between atoms: _113  and  _116
REMARK   48  A    between atoms: _116  and  _117
REMARK   49  A    between atoms: _122  and  _123
REMARK   50  A    between atoms: _125  and  _127
REMARK   51  A    between atoms: _127  and  _128
REMARK   52  A    between atoms: _130  and  _132
REMARK   53  A    between atoms: _132  and  _133
REMARK   54  A    between atoms: _132  and  _135
REMARK   55  A    between atoms: _138  and  _140
REMARK   56  A    between atoms: _140  and  _141
REMARK   57  A    between atoms: _140  and  _143
REMARK   58  A    between atoms: _143  and  _144
REMARK   59  A    between atoms: _149  and  _150
REMARK   60  A    between atoms: _152  and  _154
REMARK   61  A    between atoms: _154  and  _155
REMARK   62  A    between atoms: _158  and  _160
REMARK   63  A    between atoms: _160  and  _161
REMARK   64  A    between atoms: _160  and  _163
REMARK   65  A    between atoms: _163  and  _164
REMARK   66  A    between atoms: _164  and  _165
REMARK   67  A    between atoms: _168  and  _170
REMARK   68  A    between atoms: _170  and  _171
REMARK   69  A    between atoms: _170  and  _173
REMARK   70  A    between atoms: _173  and  _174
REMARK   71  A    between atoms: _177  and  _179
REMARK   72  A    between atoms: _179  and  _180
REMARK   73  A    between atoms: _179  and  _182
REMARK   74  A    between atoms: _185  and  _187
REMARK   75  A    between atoms: _187  and  _188
REMARK   76  A    between atoms: _187  and  _190
REMARK   77  A    between atoms: _190  and  _191
REMARK   78  A    between atoms: _201  and  _203
REMARK   79  A    between atoms: _203  and  _204
REMARK   80  A    between atoms: _206  and  _208
REMARK   81  A    between atoms: _208  and  _209
REMARK   82  A    between atoms: _208  and  _211
REMARK   83  A    between atoms: _211  and  _212
REMARK   84  A    between atoms: _217  and  _218
REMARK   85  A    between atoms: _220  and  _222
REMARK   86  A    between atoms: _222  and  _223
REMARK   87  A    between atoms: _222  and  _225
REMARK   88  A    between atoms: _225  and  _226
REMARK   89  A    between atoms: _226  and  _227
REMARK   90  A    between atoms: _227  and  _228
REMARK   91  A    between atoms: _228  and  _229
REMARK   92  A    between atoms: _233  and  _235
REMARK   93  A    between atoms: _235  and  _236
REMARK   94  A    between atoms: _235  and  _238
REMARK   95  A    between atoms: _238  and  _239
REMARK   96  A    between atoms: _242  and  _244
REMARK   97  A    between atoms: _244  and  _245
REMARK   98  A    between atoms: _244  and  _247
REMARK   99  A    between atoms: _247  and  _248
REMARK  100  A    between atoms: _248  and  _249
REMARK  101  A    between atoms: _249  and  _250
REMARK  102  A    between atoms: _259  and  _261
REMARK  103  A    between atoms: _261  and  _262
REMARK  104  A    between atoms: _261  and  _264
REMARK  105  A    between atoms: _264  and  _265
REMARK  106  A    between atoms: _268  and  _270
REMARK  107  A    between atoms: _270  and  _271
REMARK  108  A    between atoms: _270  and  _273
REMARK  109  A    between atoms: _273  and  _274
REMARK  110  A    between atoms: _274  and  _275
REMARK  111  A    between atoms: _275  and  _276
REMARK  112  A    between atoms: _276  and  _277
REMARK  113  A    between atoms: _281  and  _283
REMARK  114  A    between atoms: _283  and  _284
REMARK  115  A    between atoms: _283  and  _286
REMARK  116  A    between atoms: _286  and  _287
REMARK  117  A    between atoms: _290  and  _292
REMARK  118  A    between atoms: _292  and  _293
REMARK  119  A    between atoms: _292  and  _295
REMARK  120  A    between atoms: _295  and  _296
REMARK  121  A    between atoms: _296  and  _297
REMARK  122  A    between atoms: _302  and  _304
REMARK  123  A    between atoms: _304  and  _305
REMARK  124  A    between atoms: _304  and  _307
REMARK  125  A    between atoms: _307  and  _308
REMARK  126  A    between atoms: _311  and  _313
REMARK  127  A    between atoms: _313  and  _314
REMARK  128  A    between atoms: _313  and  _316
REMARK  129  A    between atoms: _316  and  _317
REMARK  130  A    between atoms: _322  and  _323
REMARK  131  A    between atoms: _325  and  _327
REMARK  132  A    between atoms: _327  and  _328
REMARK  133  A    between atoms: _327  and  _330
REMARK  134  A    between atoms: _330  and  _331
REMARK  135  A    between atoms: _334  and  _336
REMARK  136  A    between atoms: _336  and  _337
REMARK  137  A    between atoms: _336  and  _339
REMARK  138  A    between atoms: _341  and  _343
REMARK  139  A    between atoms: _343  and  _344
REMARK  140  A    between atoms: _347  and  _349
REMARK  141  A    between atoms: _349  and  _350
REMARK  142  A    between atoms: _349  and  _352
REMARK  143  A    between atoms: _352  and  _353
REMARK  144  A    between atoms: _356  and  _358
REMARK  145  A    between atoms: _358  and  _359
REMARK  146  A    between atoms: _362  and  _364
REMARK  147  A    between atoms: _364  and  _365
REMARK  148  A    between atoms: _364  and  _367
REMARK  149  A    between atoms: _367  and  _368
REMARK  150  A    between atoms: _368  and  _482
REMARK  151  A    between atoms: _369  and  _371
REMARK  152  A    between atoms: _371  and  _372
REMARK  153  A    between atoms: _371  and  _374
REMARK  154  A    between atoms: _374  and  _375
REMARK  155  A    between atoms: _375  and  _376
REMARK  156  A    between atoms: _376  and  _377
REMARK  157  A    between atoms: _377  and  _378
REMARK  158  A    between atoms: _382  and  _384
REMARK  159  A    between atoms: _384  and  _385
REMARK  160  A    between atoms: _387  and  _389
REMARK  161  A    between atoms: _389  and  _390
REMARK  162  A    between atoms: _389  and  _392
REMARK  163  A    between atoms: _392  and  _393
REMARK  164  A    between atoms: _396  and  _398
REMARK  165  A    between atoms: _398  and  _399
REMARK  166  A    between atoms: _398  and  _401
REMARK  167  A    between atoms: _401  and  _402
REMARK  168  A    between atoms: _404  and  _406
REMARK  169  A    between atoms: _406  and  _407
REMARK  170  A    between atoms: _409  and  _411
REMARK  171  A    between atoms: _411  and  _412
REMARK  172  A    between atoms: _414  and  _416
REMARK  173  A    between atoms: _416  and  _417
REMARK  174  A    between atoms: _416  and  _419
REMARK  175  A    between atoms: _419  and  _420
REMARK  176  A    between atoms: _423  and  _425
REMARK  177  A    between atoms: _425  and  _426
REMARK  178  A    between atoms: _425  and  _428
REMARK  179  A    between atoms: _428  and  _429
REMARK  180  A    between atoms: _432  and  _434
REMARK  181  A    between atoms: _434  and  _435
REMARK  182  A    between atoms: _434  and  _437
REMARK  183  A    between atoms: _437  and  _438
REMARK  184  A    between atoms: _440  and  _442
REMARK  185  A    between atoms: _442  and  _443
REMARK  186  A    between atoms: _442  and  _445
REMARK  187  A    between atoms: _445  and  _446
REMARK  188  A    between atoms: _456  and  _458
REMARK  189  A    between atoms: _458  and  _459
REMARK  190  A    between atoms: _461  and  _463
REMARK  191  A    between atoms: _463  and  _464
REMARK  192  A    between atoms: _463  and  _466
REMARK  193  A    between atoms: _466  and  _467
REMARK  194  A    between atoms: _467  and  _468
REMARK  195  A    between atoms: _471  and  _473
REMARK  196  A    between atoms: _473  and  _474
REMARK  197  A    between atoms: _476  and  _478
REMARK  198  A    between atoms: _478  and  _479
REMARK  199  A    between atoms: _478  and  _481
REMARK  200  A    between atoms: _481  and  _482
REMARK  201  A    between atoms: _483  and  _485
REMARK  202  A    between atoms: _485  and  _486
REMARK  203  A    between atoms: _489  and  _491
REMARK  204  A    between atoms: _491  and  _492
REMARK  205  A    between atoms: _491  and  _494
REMARK  206  A    between atoms: _494  and  _495
REMARK  207  A    between atoms: _495  and  _496
REMARK  208  A    between atoms: _501  and  _503
REMARK  209  A    between atoms: _503  and  _504
REMARK  210  A    between atoms: _503  and  _506
REMARK  211  A    between atoms: _506  and  _507
REMARK  212  A    between atoms: _507  and  _508
REMARK  213  A    between atoms: _508  and  _509
REMARK  214  A    between atoms: _519  and  _520
REMARK  215  A    between atoms: _525  and  _527
REMARK  216  A    between atoms: _527  and  _528
REMARK  217  A    between atoms: _530  and  _532
REMARK  218  A    between atoms: _532  and  _533
REMARK  219  A    between atoms: _532  and  _535
REMARK  220  A    between atoms: _538  and  _540
REMARK  221  A    between atoms: _540  and  _541
REMARK  222  A    between atoms: _540  and  _543
REMARK  223  A    between atoms: _543  and  _544
REMARK  224  A    between atoms: _549  and  _550
REMARK  225  A    between atoms: _552  and  _554
REMARK  226  A    between atoms: _554  and  _555
REMARK  227  A    between atoms: _554  and  _557
REMARK  228  A    between atoms: _557  and  _558
REMARK                            x       y       z     vdW  Elec       q    Type
REMARK                         _______ _______ _______ _____ _____    ______ ____
ROOT
ATOM      1  O   HOH     1     -53.949 -14.470 -32.215  0.00  0.00    +0.000 OA
ENDROOT
TORSDOF 0
REMARK  Name = ../refined-set-2016/4crc/4crc_pocket.pdb
REMARK  228 active torsions:
REMARK  status: ('A' for Active; 'I' for Inactive)
REMARK    1  A    between atoms: _1  and  _5
REMARK    2  A    between atoms: _5  and  _6
REMARK    3  A    between atoms: _5  and  _8
REMARK    4  A    between atoms: _8  and  _9
REMARK    5  A    between atoms: _12  and  _14
REMARK    6  A    between atoms: _14  and  _15
REMARK    7  A    between atoms: _14  and  _17
REMARK    8  A    between atoms: _20  and  _22
REMARK    9  A    between atoms: _22  and  _23
REMARK   10  A    between atoms: _22  and  _25
REMARK   11  A    between atoms: _25  and  _26
REMARK   12  A    between atoms: _26  and  _27
REMARK   13  A    between atoms: _27  and  _28
REMARK   14  A    between atoms: _37  and  _39
REMARK   15  A    between atoms: _39  and  _40
REMARK   16  A    between atoms: _39  and  _42
REMARK   17  A    between atoms: _42  and  _43
REMARK   18  A    between atoms: _48  and  _50
REMARK   19  A    between atoms: _50  and  _51
REMARK   20  A    between atoms: _50  and  _53
REMARK   21  A    between atoms: _53  and  _54
REMARK   22  A    between atoms: _57  and  _59
REMARK   23  A    between atoms: _59  and  _60
REMARK   24  A    between atoms: _59  and  _62
REMARK   25  A    between atoms: _62  and  _63
REMARK   26  A    between atoms: _63  and  _98
REMARK   27  A    between atoms: _64  and  _66
REMARK   28  A    between atoms: _66  and  _67
REMARK   29  A    between atoms: _69  and  _71
REMARK   30  A    between atoms: _71  and  _72
REMARK   31  A    between atoms: _75  and  _77
REMARK   32  A    between atoms: _77  and  _78
REMARK   33  A    between atoms: _81  and  _83
REMARK   34  A    between atoms: _83  and  _84
REMARK   35  A    between atoms: _83  and  _86
REMARK   36  A    between atoms: _86  and  _87
REMARK   37  A    between atoms: _92  and  _94
REMARK   38  A    between atoms: _94  and  _95
REMARK   39  A    between atoms: _94  and  _97
REMARK   40  A    between atoms: _97  and  _98
REMARK   41  A    between atoms: _99  and  _101
REMARK   42  A    between atoms: _101  and  _102
REMARK   43  A    between atoms: _101  and  _104
REMARK   44  A    between atoms: _104  and  _105
REMARK   45  A    between atoms: _111  and  _113
REMARK   46  A    between atoms: _113  and  _114
REMARK   47  A    between atoms: _113  and  _116
REMARK   48  A    between atoms: _116  and  _117
REMARK   49  A    between atoms: _122  and  _123
REMARK   50  A    between atoms: _125  and  _127
REMARK   51  A    between atoms: _127  and  _128
REMARK   52  A    between atoms: _130  and  _132
REMARK   53  A    between atoms: _132  and  _133
REMARK   54  A    between atoms: _132  and  _135
REMARK   55  A    between atoms: _138  and  _140
REMARK   56  A    between atoms: _140  and  _141
REMARK   57  A    between atoms: _140  and  _143
REMARK   58  A    between atoms: _143  and  _144
REMARK   59  A    between atoms: _149  and  _150
REMARK   60  A    between atoms: _152  and  _154
REMARK   61  A    between atoms: _154  and  _155
REMARK   62  A    between atoms: _158  and  _160
REMARK   63  A    between atoms: _160  and  _161
REMARK   64  A    between atoms: _160  and  _163
REMARK   65  A    between atoms: _163  and  _164
REMARK   66  A    between atoms: _164  and  _165
REMARK   67  A    between atoms: _168  and  _170
REMARK   68  A    between atoms: _170  and  _171
REMARK   69  A    between atoms: _170  and  _173
REMARK   70  A    between atoms: _173  and  _174
REMARK   71  A    between atoms: _177  and  _179
REMARK   72  A    between atoms: _179  and  _180
REMARK   73  A    between atoms: _179  and  _182
REMARK   74  A    between atoms: _185  and  _187
REMARK   75  A    between atoms: _187  and  _188
REMARK   76  A    between atoms: _187  and  _190
REMARK   77  A    between atoms: _190  and  _191
REMARK   78  A    between atoms: _201  and  _203
REMARK   79  A    between atoms: _203  and  _204
REMARK   80  A    between atoms: _206  and  _208
REMARK   81  A    between atoms: _208  and  _209
REMARK   82  A    between atoms: _208  and  _211
REMARK   83  A    between atoms: _211  and  _212
REMARK   84  A    between atoms: _217  and  _218
REMARK   85  A    between atoms: _220  and  _222
REMARK   86  A    between atoms: _222  and  _223
REMARK   87  A    between atoms: _222  and  _225
REMARK   88  A    between atoms: _225  and  _226
REMARK   89  A    between atoms: _226  and  _227
REMARK   90  A    between atoms: _227  and  _228
REMARK   91  A    between atoms: _228  and  _229
REMARK   92  A    between atoms: _233  and  _235
REMARK   93  A    between atoms: _235  and  _236
REMARK   94  A    between atoms: _235  and  _238
REMARK   95  A    between atoms: _238  and  _239
REMARK   96  A    between atoms: _242  and  _244
REMARK   97  A    between atoms: _244  and  _245
REMARK   98  A    between atoms: _244  and  _247
REMARK   99  A    between atoms: _247  and  _248
REMARK  100  A    between atoms: _248  and  _249
REMARK  101  A    between atoms: _249  and  _250
REMARK  102  A    between atoms: _259  and  _261
REMARK  103  A    between atoms: _261  and  _262
REMARK  104  A    between atoms: _261  and  _264
REMARK  105  A    between atoms: _264  and  _265
REMARK  106  A    between atoms: _268  and  _270
REMARK  107  A    between atoms: _270  and  _271
REMARK  108  A    between atoms: _270  and  _273
REMARK  109  A    between atoms: _273  and  _274
REMARK  110  A    between atoms: _274  and  _275
REMARK  111  A    between atoms: _275  and  _276
REMARK  112  A    between atoms: _276  and  _277
REMARK  113  A    between atoms: _281  and  _283
REMARK  114  A    between atoms: _283  and  _284
REMARK  115  A    between atoms: _283  and  _286
REMARK  116  A    between atoms: _286  and  _287
REMARK  117  A    between atoms: _290  and  _292
REMARK  118  A    between atoms: _292  and  _293
REMARK  119  A    between atoms: _292  and  _295
REMARK  120  A    between atoms: _295  and  _296
REMARK  121  A    between atoms: _296  and  _297
REMARK  122  A    between atoms: _302  and  _304
REMARK  123  A    between atoms: _304  and  _305
REMARK  124  A    between atoms: _304  and  _307
REMARK  125  A    between atoms: _307  and  _308
REMARK  126  A    between atoms: _311  and  _313
REMARK  127  A    between atoms: _313  and  _314
REMARK  128  A    between atoms: _313  and  _316
REMARK  129  A    between atoms: _316  and  _317
REMARK  130  A    between atoms: _322  and  _323
REMARK  131  A    between atoms: _325  and  _327
REMARK  132  A    between atoms: _327  and  _328
REMARK  133  A    between atoms: _327  and  _330
REMARK  134  A    between atoms: _330  and  _331
REMARK  135  A    between atoms: _334  and  _336
REMARK  136  A    between atoms: _336  and  _337
REMARK  137  A    between atoms: _336  and  _339
REMARK  138  A    between atoms: _341  and  _343
REMARK  139  A    between atoms: _343  and  _344
REMARK  140  A    between atoms: _347  and  _349
REMARK  141  A    between atoms: _349  and  _350
REMARK  142  A    between atoms: _349  and  _352
REMARK  143  A    between atoms: _352  and  _353
REMARK  144  A    between atoms: _356  and  _358
REMARK  145  A    between atoms: _358  and  _359
REMARK  146  A    between atoms: _362  and  _364
REMARK  147  A    between atoms: _364  and  _365
REMARK  148  A    between atoms: _364  and  _367
REMARK  149  A    between atoms: _367  and  _368
REMARK  150  A    between atoms: _368  and  _482
REMARK  151  A    between atoms: _369  and  _371
REMARK  152  A    between atoms: _371  and  _372
REMARK  153  A    between atoms: _371  and  _374
REMARK  154  A    between atoms: _374  and  _375
REMARK  155  A    between atoms: _375  and  _376
REMARK  156  A    between atoms: _376  and  _377
REMARK  157  A    between atoms: _377  and  _378
REMARK  158  A    between atoms: _382  and  _384
REMARK  159  A    between atoms: _384  and  _385
REMARK  160  A    between atoms: _387  and  _389
REMARK  161  A    between atoms: _389  and  _390
REMARK  162  A    between atoms: _389  and  _392
REMARK  163  A    between atoms: _392  and  _393
REMARK  164  A    between atoms: _396  and  _398
REMARK  165  A    between atoms: _398  and  _399
REMARK  166  A    between atoms: _398  and  _401
REMARK  167  A    between atoms: _401  and  _402
REMARK  168  A    between atoms: _404  and  _406
REMARK  169  A    between atoms: _406  and  _407
REMARK  170  A    between atoms: _409  and  _411
REMARK  171  A    between atoms: _411  and  _412
REMARK  172  A    between atoms: _414  and  _416
REMARK  173  A    between atoms: _416  and  _417
REMARK  174  A    between atoms: _416  and  _419
REMARK  175  A    between atoms: _419  and  _420
REMARK  176  A    between atoms: _423  and  _425
REMARK  177  A    between atoms: _425  and  _426
REMARK  178  A    between atoms: _425  and  _428
REMARK  179  A    between atoms: _428  and  _429
REMARK  180  A    between atoms: _432  and  _434
REMARK  181  A    between atoms: _434  and  _435
REMARK  182  A    between atoms: _434  and  _437
REMARK  183  A    between atoms: _437  and  _438
REMARK  184  A    between atoms: _440  and  _442
REMARK  185  A    between atoms: _442  and  _443
REMARK  186  A    between atoms: _442  and  _445
REMARK  187  A    between atoms: _445  and  _446
REMARK  188  A    between atoms: _456  and  _458
REMARK  189  A    between atoms: _458  and  _459
REMARK  190  A    between atoms: _461  and  _463
REMARK  191  A    between atoms: _463  and  _464
REMARK  192  A    between atoms: _463  and  _466
REMARK  193  A    between atoms: _466  and  _467
REMARK  194  A    between atoms: _467  and  _468
REMARK  195  A    between atoms: _471  and  _473
REMARK  196  A    between atoms: _473  and  _474
REMARK  197  A    between atoms: _476  and  _478
REMARK  198  A    between atoms: _478  and  _479
REMARK  199  A    between atoms: _478  and  _481
REMARK  200  A    between atoms: _481  and  _482
REMARK  201  A    between atoms: _483  and  _485
REMARK  202  A    between atoms: _485  and  _486
REMARK  203  A    between atoms: _489  and  _491
REMARK  204  A    between atoms: _491  and  _492
REMARK  205  A    between atoms: _491  and  _494
REMARK  206  A    between atoms: _494  and  _495
REMARK  207  A    between atoms: _495  and  _496
REMARK  208  A    between atoms: _501  and  _503
REMARK  209  A    between atoms: _503  and  _504
REMARK  210  A    between atoms: _503  and  _506
REMARK  211  A    between atoms: _506  and  _507
REMARK  212  A    between atoms: _507  and  _508
REMARK  213  A    between atoms: _508  and  _509
REMARK  214  A    between atoms: _519  and  _520
REMARK  215  A    between atoms: _525  and  _527
REMARK  216  A    between atoms: _527  and  _528
REMARK  217  A    between atoms: _530  and  _532
REMARK  218  A    between atoms: _532  and  _533
REMARK  219  A    between atoms: _532  and  _535
REMARK  220  A    between atoms: _538  and  _540
REMARK  221  A    between atoms: _540  and  _541
REMARK  222  A    between atoms: _540  and  _543
REMARK  223  A    between atoms: _543  and  _544
REMARK  224  A    between atoms: _549  and  _550
REMARK  225  A    between atoms: _552  and  _554
REMARK  226  A    between atoms: _554  and  _555
REMARK  227  A    between atoms: _554  and  _557
REMARK  228  A    between atoms: _557  and  _558
REMARK                            x       y       z     vdW  Elec       q    Type
REMARK                         _______ _______ _______ _____ _____    ______ ____
ROOT
ATOM      1  O   HOH     1     -59.691  -6.005 -20.031  0.00  0.00    +0.000 OA
ENDROOT
TORSDOF 0
REMARK  Name = ../refined-set-2016/4crc/4crc_pocket.pdb
REMARK  228 active torsions:
REMARK  status: ('A' for Active; 'I' for Inactive)
REMARK    1  A    between atoms: _1  and  _5
REMARK    2  A    between atoms: _5  and  _6
REMARK    3  A    between atoms: _5  and  _8
REMARK    4  A    between atoms: _8  and  _9
REMARK    5  A    between atoms: _12  and  _14
REMARK    6  A    between atoms: _14  and  _15
REMARK    7  A    between atoms: _14  and  _17
REMARK    8  A    between atoms: _20  and  _22
REMARK    9  A    between atoms: _22  and  _23
REMARK   10  A    between atoms: _22  and  _25
REMARK   11  A    between atoms: _25  and  _26
REMARK   12  A    between atoms: _26  and  _27
REMARK   13  A    between atoms: _27  and  _28
REMARK   14  A    between atoms: _37  and  _39
REMARK   15  A    between atoms: _39  and  _40
REMARK   16  A    between atoms: _39  and  _42
REMARK   17  A    between atoms: _42  and  _43
REMARK   18  A    between atoms: _48  and  _50
REMARK   19  A    between atoms: _50  and  _51
REMARK   20  A    between atoms: _50  and  _53
REMARK   21  A    between atoms: _53  and  _54
REMARK   22  A    between atoms: _57  and  _59
REMARK   23  A    between atoms: _59  and  _60
REMARK   24  A    between atoms: _59  and  _62
REMARK   25  A    between atoms: _62  and  _63
REMARK   26  A    between atoms: _63  and  _98
REMARK   27  A    between atoms: _64  and  _66
REMARK   28  A    between atoms: _66  and  _67
REMARK   29  A    between atoms: _69  and  _71
REMARK   30  A    between atoms: _71  and  _72
REMARK   31  A    between atoms: _75  and  _77
REMARK   32  A    between atoms: _77  and  _78
REMARK   33  A    between atoms: _81  and  _83
REMARK   34  A    between atoms: _83  and  _84
REMARK   35  A    between atoms: _83  and  _86
REMARK   36  A    between atoms: _86  and  _87
REMARK   37  A    between atoms: _92  and  _94
REMARK   38  A    between atoms: _94  and  _95
REMARK   39  A    between atoms: _94  and  _97
REMARK   40  A    between atoms: _97  and  _98
REMARK   41  A    between atoms: _99  and  _101
REMARK   42  A    between atoms: _101  and  _102
REMARK   43  A    between atoms: _101  and  _104
REMARK   44  A    between atoms: _104  and  _105
REMARK   45  A    between atoms: _111  and  _113
REMARK   46  A    between atoms: _113  and  _114
REMARK   47  A    between atoms: _113  and  _116
REMARK   48  A    between atoms: _116  and  _117
REMARK   49  A    between atoms: _122  and  _123
REMARK   50  A    between atoms: _125  and  _127
REMARK   51  A    between atoms: _127  and  _128
REMARK   52  A    between atoms: _130  and  _132
REMARK   53  A    between atoms: _132  and  _133
REMARK   54  A    between atoms: _132  and  _135
REMARK   55  A    between atoms: _138  and  _140
REMARK   56  A    between atoms: _140  and  _141
REMARK   57  A    between atoms: _140  and  _143
REMARK   58  A    between atoms: _143  and  _144
REMARK   59  A    between atoms: _149  and  _150
REMARK   60  A    between atoms: _152  and  _154
REMARK   61  A    between atoms: _154  and  _155
REMARK   62  A    between atoms: _158  and  _160
REMARK   63  A    between atoms: _160  and  _161
REMARK   64  A    between atoms: _160  and  _163
REMARK   65  A    between atoms: _163  and  _164
REMARK   66  A    between atoms: _164  and  _165
REMARK   67  A    between atoms: _168  and  _170
REMARK   68  A    between atoms: _170  and  _171
REMARK   69  A    between atoms: _170  and  _173
REMARK   70  A    between atoms: _173  and  _174
REMARK   71  A    between atoms: _177  and  _179
REMARK   72  A    between atoms: _179  and  _180
REMARK   73  A    between atoms: _179  and  _182
REMARK   74  A    between atoms: _185  and  _187
REMARK   75  A    between atoms: _187  and  _188
REMARK   76  A    between atoms: _187  and  _190
REMARK   77  A    between atoms: _190  and  _191
REMARK   78  A    between atoms: _201  and  _203
REMARK   79  A    between atoms: _203  and  _204
REMARK   80  A    between atoms: _206  and  _208
REMARK   81  A    between atoms: _208  and  _209
REMARK   82  A    between atoms: _208  and  _211
REMARK   83  A    between atoms: _211  and  _212
REMARK   84  A    between atoms: _217  and  _218
REMARK   85  A    between atoms: _220  and  _222
REMARK   86  A    between atoms: _222  and  _223
REMARK   87  A    between atoms: _222  and  _225
REMARK   88  A    between atoms: _225  and  _226
REMARK   89  A    between atoms: _226  and  _227
REMARK   90  A    between atoms: _227  and  _228
REMARK   91  A    between atoms: _228  and  _229
REMARK   92  A    between atoms: _233  and  _235
REMARK   93  A    between atoms: _235  and  _236
REMARK   94  A    between atoms: _235  and  _238
REMARK   95  A    between atoms: _238  and  _239
REMARK   96  A    between atoms: _242  and  _244
REMARK   97  A    between atoms: _244  and  _245
REMARK   98  A    between atoms: _244  and  _247
REMARK   99  A    between atoms: _247  and  _248
REMARK  100  A    between atoms: _248  and  _249
REMARK  101  A    between atoms: _249  and  _250
REMARK  102  A    between atoms: _259  and  _261
REMARK  103  A    between atoms: _261  and  _262
REMARK  104  A    between atoms: _261  and  _264
REMARK  105  A    between atoms: _264  and  _265
REMARK  106  A    between atoms: _268  and  _270
REMARK  107  A    between atoms: _270  and  _271
REMARK  108  A    between atoms: _270  and  _273
REMARK  109  A    between atoms: _273  and  _274
REMARK  110  A    between atoms: _274  and  _275
REMARK  111  A    between atoms: _275  and  _276
REMARK  112  A    between atoms: _276  and  _277
REMARK  113  A    between atoms: _281  and  _283
REMARK  114  A    between atoms: _283  and  _284
REMARK  115  A    between atoms: _283  and  _286
REMARK  116  A    between atoms: _286  and  _287
REMARK  117  A    between atoms: _290  and  _292
REMARK  118  A    between atoms: _292  and  _293
REMARK  119  A    between atoms: _292  and  _295
REMARK  120  A    between atoms: _295  and  _296
REMARK  121  A    between atoms: _296  and  _297
REMARK  122  A    between atoms: _302  and  _304
REMARK  123  A    between atoms: _304  and  _305
REMARK  124  A    between atoms: _304  and  _307
REMARK  125  A    between atoms: _307  and  _308
REMARK  126  A    between atoms: _311  and  _313
REMARK  127  A    between atoms: _313  and  _314
REMARK  128  A    between atoms: _313  and  _316
REMARK  129  A    between atoms: _316  and  _317
REMARK  130  A    between atoms: _322  and  _323
REMARK  131  A    between atoms: _325  and  _327
REMARK  132  A    between atoms: _327  and  _328
REMARK  133  A    between atoms: _327  and  _330
REMARK  134  A    between atoms: _330  and  _331
REMARK  135  A    between atoms: _334  and  _336
REMARK  136  A    between atoms: _336  and  _337
REMARK  137  A    between atoms: _336  and  _339
REMARK  138  A    between atoms: _341  and  _343
REMARK  139  A    between atoms: _343  and  _344
REMARK  140  A    between atoms: _347  and  _349
REMARK  141  A    between atoms: _349  and  _350
REMARK  142  A    between atoms: _349  and  _352
REMARK  143  A    between atoms: _352  and  _353
REMARK  144  A    between atoms: _356  and  _358
REMARK  145  A    between atoms: _358  and  _359
REMARK  146  A    between atoms: _362  and  _364
REMARK  147  A    between atoms: _364  and  _365
REMARK  148  A    between atoms: _364  and  _367
REMARK  149  A    between atoms: _367  and  _368
REMARK  150  A    between atoms: _368  and  _482
REMARK  151  A    between atoms: _369  and  _371
REMARK  152  A    between atoms: _371  and  _372
REMARK  153  A    between atoms: _371  and  _374
REMARK  154  A    between atoms: _374  and  _375
REMARK  155  A    between atoms: _375  and  _376
REMARK  156  A    between atoms: _376  and  _377
REMARK  157  A    between atoms: _377  and  _378
REMARK  158  A    between atoms: _382  and  _384
REMARK  159  A    between atoms: _384  and  _385
REMARK  160  A    between atoms: _387  and  _389
REMARK  161  A    between atoms: _389  and  _390
REMARK  162  A    between atoms: _389  and  _392
REMARK  163  A    between atoms: _392  and  _393
REMARK  164  A    between atoms: _396  and  _398
REMARK  165  A    between atoms: _398  and  _399
REMARK  166  A    between atoms: _398  and  _401
REMARK  167  A    between atoms: _401  and  _402
REMARK  168  A    between atoms: _404  and  _406
REMARK  169  A    between atoms: _406  and  _407
REMARK  170  A    between atoms: _409  and  _411
REMARK  171  A    between atoms: _411  and  _412
REMARK  172  A    between atoms: _414  and  _416
REMARK  173  A    between atoms: _416  and  _417
REMARK  174  A    between atoms: _416  and  _419
REMARK  175  A    between atoms: _419  and  _420
REMARK  176  A    between atoms: _423  and  _425
REMARK  177  A    between atoms: _425  and  _426
REMARK  178  A    between atoms: _425  and  _428
REMARK  179  A    between atoms: _428  and  _429
REMARK  180  A    between atoms: _432  and  _434
REMARK  181  A    between atoms: _434  and  _435
REMARK  182  A    between atoms: _434  and  _437
REMARK  183  A    between atoms: _437  and  _438
REMARK  184  A    between atoms: _440  and  _442
REMARK  185  A    between atoms: _442  and  _443
REMARK  186  A    between atoms: _442  and  _445
REMARK  187  A    between atoms: _445  and  _446
REMARK  188  A    between atoms: _456  and  _458
REMARK  189  A    between atoms: _458  and  _459
REMARK  190  A    between atoms: _461  and  _463
REMARK  191  A    between atoms: _463  and  _464
REMARK  192  A    between atoms: _463  and  _466
REMARK  193  A    between atoms: _466  and  _467
REMARK  194  A    between atoms: _467  and  _468
REMARK  195  A    between atoms: _471  and  _473
REMARK  196  A    between atoms: _473  and  _474
REMARK  197  A    between atoms: _476  and  _478
REMARK  198  A    between atoms: _478  and  _479
REMARK  199  A    between atoms: _478  and  _481
REMARK  200  A    between atoms: _481  and  _482
REMARK  201  A    between atoms: _483  and  _485
REMARK  202  A    between atoms: _485  and  _486
REMARK  203  A    between atoms: _489  and  _491
REMARK  204  A    between atoms: _491  and  _492
REMARK  205  A    between atoms: _491  and  _494
REMARK  206  A    between atoms: _494  and  _495
REMARK  207  A    between atoms: _495  and  _496
REMARK  208  A    between atoms: _501  and  _503
REMARK  209  A    between atoms: _503  and  _504
REMARK  210  A    between atoms: _503  and  _506
REMARK  211  A    between atoms: _506  and  _507
REMARK  212  A    between atoms: _507  and  _508
REMARK  213  A    between atoms: _508  and  _509
REMARK  214  A    between atoms: _519  and  _520
REMARK  215  A    between atoms: _525  and  _527
REMARK  216  A    between atoms: _527  and  _528
REMARK  217  A    between atoms: _530  and  _532
REMARK  218  A    between atoms: _532  and  _533
REMARK  219  A    between atoms: _532  and  _535
REMARK  220  A    between atoms: _538  and  _540
REMARK  221  A    between atoms: _540  and  _541
REMARK  222  A    between atoms: _540  and  _543
REMARK  223  A    between atoms: _543  and  _544
REMARK  224  A    between atoms: _549  and  _550
REMARK  225  A    between atoms: _552  and  _554
REMARK  226  A    between atoms: _554  and  _555
REMARK  227  A    between atoms: _554  and  _557
REMARK  228  A    between atoms: _557  and  _558
REMARK                            x       y       z     vdW  Elec       q    Type
REMARK                         _______ _______ _______ _____ _____    ______ ____
ROOT
ATOM      1  O   HOH     1     -59.281  -7.740 -15.899  0.00  0.00    +0.000 OA
ENDROOT
TORSDOF 0
REMARK  Name = ../refined-set-2016/4crc/4crc_pocket.pdb
REMARK  228 active torsions:
REMARK  status: ('A' for Active; 'I' for Inactive)
REMARK    1  A    between atoms: _1  and  _5
REMARK    2  A    between atoms: _5  and  _6
REMARK    3  A    between atoms: _5  and  _8
REMARK    4  A    between atoms: _8  and  _9
REMARK    5  A    between atoms: _12  and  _14
REMARK    6  A    between atoms: _14  and  _15
REMARK    7  A    between atoms: _14  and  _17
REMARK    8  A    between atoms: _20  and  _22
REMARK    9  A    between atoms: _22  and  _23
REMARK   10  A    between atoms: _22  and  _25
REMARK   11  A    between atoms: _25  and  _26
REMARK   12  A    between atoms: _26  and  _27
REMARK   13  A    between atoms: _27  and  _28
REMARK   14  A    between atoms: _37  and  _39
REMARK   15  A    between atoms: _39  and  _40
REMARK   16  A    between atoms: _39  and  _42
REMARK   17  A    between atoms: _42  and  _43
REMARK   18  A    between atoms: _48  and  _50
REMARK   19  A    between atoms: _50  and  _51
REMARK   20  A    between atoms: _50  and  _53
REMARK   21  A    between atoms: _53  and  _54
REMARK   22  A    between atoms: _57  and  _59
REMARK   23  A    between atoms: _59  and  _60
REMARK   24  A    between atoms: _59  and  _62
REMARK   25  A    between atoms: _62  and  _63
REMARK   26  A    between atoms: _63  and  _98
REMARK   27  A    between atoms: _64  and  _66
REMARK   28  A    between atoms: _66  and  _67
REMARK   29  A    between atoms: _69  and  _71
REMARK   30  A    between atoms: _71  and  _72
REMARK   31  A    between atoms: _75  and  _77
REMARK   32  A    between atoms: _77  and  _78
REMARK   33  A    between atoms: _81  and  _83
REMARK   34  A    between atoms: _83  and  _84
REMARK   35  A    between atoms: _83  and  _86
REMARK   36  A    between atoms: _86  and  _87
REMARK   37  A    between atoms: _92  and  _94
REMARK   38  A    between atoms: _94  and  _95
REMARK   39  A    between atoms: _94  and  _97
REMARK   40  A    between atoms: _97  and  _98
REMARK   41  A    between atoms: _99  and  _101
REMARK   42  A    between atoms: _101  and  _102
REMARK   43  A    between atoms: _101  and  _104
REMARK   44  A    between atoms: _104  and  _105
REMARK   45  A    between atoms: _111  and  _113
REMARK   46  A    between atoms: _113  and  _114
REMARK   47  A    between atoms: _113  and  _116
REMARK   48  A    between atoms: _116  and  _117
REMARK   49  A    between atoms: _122  and  _123
REMARK   50  A    between atoms: _125  and  _127
REMARK   51  A    between atoms: _127  and  _128
REMARK   52  A    between atoms: _130  and  _132
REMARK   53  A    between atoms: _132  and  _133
REMARK   54  A    between atoms: _132  and  _135
REMARK   55  A    between atoms: _138  and  _140
REMARK   56  A    between atoms: _140  and  _141
REMARK   57  A    between atoms: _140  and  _143
REMARK   58  A    between atoms: _143  and  _144
REMARK   59  A    between atoms: _149  and  _150
REMARK   60  A    between atoms: _152  and  _154
REMARK   61  A    between atoms: _154  and  _155
REMARK   62  A    between atoms: _158  and  _160
REMARK   63  A    between atoms: _160  and  _161
REMARK   64  A    between atoms: _160  and  _163
REMARK   65  A    between atoms: _163  and  _164
REMARK   66  A    between atoms: _164  and  _165
REMARK   67  A    between atoms: _168  and  _170
REMARK   68  A    between atoms: _170  and  _171
REMARK   69  A    between atoms: _170  and  _173
REMARK   70  A    between atoms: _173  and  _174
REMARK   71  A    between atoms: _177  and  _179
REMARK   72  A    between atoms: _179  and  _180
REMARK   73  A    between atoms: _179  and  _182
REMARK   74  A    between atoms: _185  and  _187
REMARK   75  A    between atoms: _187  and  _188
REMARK   76  A    between atoms: _187  and  _190
REMARK   77  A    between atoms: _190  and  _191
REMARK   78  A    between atoms: _201  and  _203
REMARK   79  A    between atoms: _203  and  _204
REMARK   80  A    between atoms: _206  and  _208
REMARK   81  A    between atoms: _208  and  _209
REMARK   82  A    between atoms: _208  and  _211
REMARK   83  A    between atoms: _211  and  _212
REMARK   84  A    between atoms: _217  and  _218
REMARK   85  A    between atoms: _220  and  _222
REMARK   86  A    between atoms: _222  and  _223
REMARK   87  A    between atoms: _222  and  _225
REMARK   88  A    between atoms: _225  and  _226
REMARK   89  A    between atoms: _226  and  _227
REMARK   90  A    between atoms: _227  and  _228
REMARK   91  A    between atoms: _228  and  _229
REMARK   92  A    between atoms: _233  and  _235
REMARK   93  A    between atoms: _235  and  _236
REMARK   94  A    between atoms: _235  and  _238
REMARK   95  A    between atoms: _238  and  _239
REMARK   96  A    between atoms: _242  and  _244
REMARK   97  A    between atoms: _244  and  _245
REMARK   98  A    between atoms: _244  and  _247
REMARK   99  A    between atoms: _247  and  _248
REMARK  100  A    between atoms: _248  and  _249
REMARK  101  A    between atoms: _249  and  _250
REMARK  102  A    between atoms: _259  and  _261
REMARK  103  A    between atoms: _261  and  _262
REMARK  104  A    between atoms: _261  and  _264
REMARK  105  A    between atoms: _264  and  _265
REMARK  106  A    between atoms: _268  and  _270
REMARK  107  A    between atoms: _270  and  _271
REMARK  108  A    between atoms: _270  and  _273
REMARK  109  A    between atoms: _273  and  _274
REMARK  110  A    between atoms: _274  and  _275
REMARK  111  A    between atoms: _275  and  _276
REMARK  112  A    between atoms: _276  and  _277
REMARK  113  A    between atoms: _281  and  _283
REMARK  114  A    between atoms: _283  and  _284
REMARK  115  A    between atoms: _283  and  _286
REMARK  116  A    between atoms: _286  and  _287
REMARK  117  A    between atoms: _290  and  _292
REMARK  118  A    between atoms: _292  and  _293
REMARK  119  A    between atoms: _292  and  _295
REMARK  120  A    between atoms: _295  and  _296
REMARK  121  A    between atoms: _296  and  _297
REMARK  122  A    between atoms: _302  and  _304
REMARK  123  A    between atoms: _304  and  _305
REMARK  124  A    between atoms: _304  and  _307
REMARK  125  A    between atoms: _307  and  _308
REMARK  126  A    between atoms: _311  and  _313
REMARK  127  A    between atoms: _313  and  _314
REMARK  128  A    between atoms: _313  and  _316
REMARK  129  A    between atoms: _316  and  _317
REMARK  130  A    between atoms: _322  and  _323
REMARK  131  A    between atoms: _325  and  _327
REMARK  132  A    between atoms: _327  and  _328
REMARK  133  A    between atoms: _327  and  _330
REMARK  134  A    between atoms: _330  and  _331
REMARK  135  A    between atoms: _334  and  _336
REMARK  136  A    between atoms: _336  and  _337
REMARK  137  A    between atoms: _336  and  _339
REMARK  138  A    between atoms: _341  and  _343
REMARK  139  A    between atoms: _343  and  _344
REMARK  140  A    between atoms: _347  and  _349
REMARK  141  A    between atoms: _349  and  _350
REMARK  142  A    between atoms: _349  and  _352
REMARK  143  A    between atoms: _352  and  _353
REMARK  144  A    between atoms: _356  and  _358
REMARK  145  A    between atoms: _358  and  _359
REMARK  146  A    between atoms: _362  and  _364
REMARK  147  A    between atoms: _364  and  _365
REMARK  148  A    between atoms: _364  and  _367
REMARK  149  A    between atoms: _367  and  _368
REMARK  150  A    between atoms: _368  and  _482
REMARK  151  A    between atoms: _369  and  _371
REMARK  152  A    between atoms: _371  and  _372
REMARK  153  A    between atoms: _371  and  _374
REMARK  154  A    between atoms: _374  and  _375
REMARK  155  A    between atoms: _375  and  _376
REMARK  156  A    between atoms: _376  and  _377
REMARK  157  A    between atoms: _377  and  _378
REMARK  158  A    between atoms: _382  and  _384
REMARK  159  A    between atoms: _384  and  _385
REMARK  160  A    between atoms: _387  and  _389
REMARK  161  A    between atoms: _389  and  _390
REMARK  162  A    between atoms: _389  and  _392
REMARK  163  A    between atoms: _392  and  _393
REMARK  164  A    between atoms: _396  and  _398
REMARK  165  A    between atoms: _398  and  _399
REMARK  166  A    between atoms: _398  and  _401
REMARK  167  A    between atoms: _401  and  _402
REMARK  168  A    between atoms: _404  and  _406
REMARK  169  A    between atoms: _406  and  _407
REMARK  170  A    between atoms: _409  and  _411
REMARK  171  A    between atoms: _411  and  _412
REMARK  172  A    between atoms: _414  and  _416
REMARK  173  A    between atoms: _416  and  _417
REMARK  174  A    between atoms: _416  and  _419
REMARK  175  A    between atoms: _419  and  _420
REMARK  176  A    between atoms: _423  and  _425
REMARK  177  A    between atoms: _425  and  _426
REMARK  178  A    between atoms: _425  and  _428
REMARK  179  A    between atoms: _428  and  _429
REMARK  180  A    between atoms: _432  and  _434
REMARK  181  A    between atoms: _434  and  _435
REMARK  182  A    between atoms: _434  and  _437
REMARK  183  A    between atoms: _437  and  _438
REMARK  184  A    between atoms: _440  and  _442
REMARK  185  A    between atoms: _442  and  _443
REMARK  186  A    between atoms: _442  and  _445
REMARK  187  A    between atoms: _445  and  _446
REMARK  188  A    between atoms: _456  and  _458
REMARK  189  A    between atoms: _458  and  _459
REMARK  190  A    between atoms: _461  and  _463
REMARK  191  A    between atoms: _463  and  _464
REMARK  192  A    between atoms: _463  and  _466
REMARK  193  A    between atoms: _466  and  _467
REMARK  194  A    between atoms: _467  and  _468
REMARK  195  A    between atoms: _471  and  _473
REMARK  196  A    between atoms: _473  and  _474
REMARK  197  A    between atoms: _476  and  _478
REMARK  198  A    between atoms: _478  and  _479
REMARK  199  A    between atoms: _478  and  _481
REMARK  200  A    between atoms: _481  and  _482
REMARK  201  A    between atoms: _483  and  _485
REMARK  202  A    between atoms: _485  and  _486
REMARK  203  A    between atoms: _489  and  _491
REMARK  204  A    between atoms: _491  and  _492
REMARK  205  A    between atoms: _491  and  _494
REMARK  206  A    between atoms: _494  and  _495
REMARK  207  A    between atoms: _495  and  _496
REMARK  208  A    between atoms: _501  and  _503
REMARK  209  A    between atoms: _503  and  _504
REMARK  210  A    between atoms: _503  and  _506
REMARK  211  A    between atoms: _506  and  _507
REMARK  212  A    between atoms: _507  and  _508
REMARK  213  A    between atoms: _508  and  _509
REMARK  214  A    between atoms: _519  and  _520
REMARK  215  A    between atoms: _525  and  _527
REMARK  216  A    between atoms: _527  and  _528
REMARK  217  A    between atoms: _530  and  _532
REMARK  218  A    between atoms: _532  and  _533
REMARK  219  A    between atoms: _532  and  _535
REMARK  220  A    between atoms: _538  and  _540
REMARK  221  A    between atoms: _540  and  _541
REMARK  222  A    between atoms: _540  and  _543
REMARK  223  A    between atoms: _543  and  _544
REMARK  224  A    between atoms: _549  and  _550
REMARK  225  A    between atoms: _552  and  _554
REMARK  226  A    between atoms: _554  and  _555
REMARK  227  A    between atoms: _554  and  _557
REMARK  228  A    between atoms: _557  and  _558
REMARK                            x       y       z     vdW  Elec       q    Type
REMARK                         _______ _______ _______ _____ _____    ______ ____
ROOT
ATOM      1  O   HOH     1     -57.518   0.062 -28.969  0.00  0.00    +0.000 OA
ENDROOT
TORSDOF 0
REMARK  Name = ../refined-set-2016/4crc/4crc_pocket.pdb
REMARK  228 active torsions:
REMARK  status: ('A' for Active; 'I' for Inactive)
REMARK    1  A    between atoms: _1  and  _5
REMARK    2  A    between atoms: _5  and  _6
REMARK    3  A    between atoms: _5  and  _8
REMARK    4  A    between atoms: _8  and  _9
REMARK    5  A    between atoms: _12  and  _14
REMARK    6  A    between atoms: _14  and  _15
REMARK    7  A    between atoms: _14  and  _17
REMARK    8  A    between atoms: _20  and  _22
REMARK    9  A    between atoms: _22  and  _23
REMARK   10  A    between atoms: _22  and  _25
REMARK   11  A    between atoms: _25  and  _26
REMARK   12  A    between atoms: _26  and  _27
REMARK   13  A    between atoms: _27  and  _28
REMARK   14  A    between atoms: _37  and  _39
REMARK   15  A    between atoms: _39  and  _40
REMARK   16  A    between atoms: _39  and  _42
REMARK   17  A    between atoms: _42  and  _43
REMARK   18  A    between atoms: _48  and  _50
REMARK   19  A    between atoms: _50  and  _51
REMARK   20  A    between atoms: _50  and  _53
REMARK   21  A    between atoms: _53  and  _54
REMARK   22  A    between atoms: _57  and  _59
REMARK   23  A    between atoms: _59  and  _60
REMARK   24  A    between atoms: _59  and  _62
REMARK   25  A    between atoms: _62  and  _63
REMARK   26  A    between atoms: _63  and  _98
REMARK   27  A    between atoms: _64  and  _66
REMARK   28  A    between atoms: _66  and  _67
REMARK   29  A    between atoms: _69  and  _71
REMARK   30  A    between atoms: _71  and  _72
REMARK   31  A    between atoms: _75  and  _77
REMARK   32  A    between atoms: _77  and  _78
REMARK   33  A    between atoms: _81  and  _83
REMARK   34  A    between atoms: _83  and  _84
REMARK   35  A    between atoms: _83  and  _86
REMARK   36  A    between atoms: _86  and  _87
REMARK   37  A    between atoms: _92  and  _94
REMARK   38  A    between atoms: _94  and  _95
REMARK   39  A    between atoms: _94  and  _97
REMARK   40  A    between atoms: _97  and  _98
REMARK   41  A    between atoms: _99  and  _101
REMARK   42  A    between atoms: _101  and  _102
REMARK   43  A    between atoms: _101  and  _104
REMARK   44  A    between atoms: _104  and  _105
REMARK   45  A    between atoms: _111  and  _113
REMARK   46  A    between atoms: _113  and  _114
REMARK   47  A    between atoms: _113  and  _116
REMARK   48  A    between atoms: _116  and  _117
REMARK   49  A    between atoms: _122  and  _123
REMARK   50  A    between atoms: _125  and  _127
REMARK   51  A    between atoms: _127  and  _128
REMARK   52  A    between atoms: _130  and  _132
REMARK   53  A    between atoms: _132  and  _133
REMARK   54  A    between atoms: _132  and  _135
REMARK   55  A    between atoms: _138  and  _140
REMARK   56  A    between atoms: _140  and  _141
REMARK   57  A    between atoms: _140  and  _143
REMARK   58  A    between atoms: _143  and  _144
REMARK   59  A    between atoms: _149  and  _150
REMARK   60  A    between atoms: _152  and  _154
REMARK   61  A    between atoms: _154  and  _155
REMARK   62  A    between atoms: _158  and  _160
REMARK   63  A    between atoms: _160  and  _161
REMARK   64  A    between atoms: _160  and  _163
REMARK   65  A    between atoms: _163  and  _164
REMARK   66  A    between atoms: _164  and  _165
REMARK   67  A    between atoms: _168  and  _170
REMARK   68  A    between atoms: _170  and  _171
REMARK   69  A    between atoms: _170  and  _173
REMARK   70  A    between atoms: _173  and  _174
REMARK   71  A    between atoms: _177  and  _179
REMARK   72  A    between atoms: _179  and  _180
REMARK   73  A    between atoms: _179  and  _182
REMARK   74  A    between atoms: _185  and  _187
REMARK   75  A    between atoms: _187  and  _188
REMARK   76  A    between atoms: _187  and  _190
REMARK   77  A    between atoms: _190  and  _191
REMARK   78  A    between atoms: _201  and  _203
REMARK   79  A    between atoms: _203  and  _204
REMARK   80  A    between atoms: _206  and  _208
REMARK   81  A    between atoms: _208  and  _209
REMARK   82  A    between atoms: _208  and  _211
REMARK   83  A    between atoms: _211  and  _212
REMARK   84  A    between atoms: _217  and  _218
REMARK   85  A    between atoms: _220  and  _222
REMARK   86  A    between atoms: _222  and  _223
REMARK   87  A    between atoms: _222  and  _225
REMARK   88  A    between atoms: _225  and  _226
REMARK   89  A    between atoms: _226  and  _227
REMARK   90  A    between atoms: _227  and  _228
REMARK   91  A    between atoms: _228  and  _229
REMARK   92  A    between atoms: _233  and  _235
REMARK   93  A    between atoms: _235  and  _236
REMARK   94  A    between atoms: _235  and  _238
REMARK   95  A    between atoms: _238  and  _239
REMARK   96  A    between atoms: _242  and  _244
REMARK   97  A    between atoms: _244  and  _245
REMARK   98  A    between atoms: _244  and  _247
REMARK   99  A    between atoms: _247  and  _248
REMARK  100  A    between atoms: _248  and  _249
REMARK  101  A    between atoms: _249  and  _250
REMARK  102  A    between atoms: _259  and  _261
REMARK  103  A    between atoms: _261  and  _262
REMARK  104  A    between atoms: _261  and  _264
REMARK  105  A    between atoms: _264  and  _265
REMARK  106  A    between atoms: _268  and  _270
REMARK  107  A    between atoms: _270  and  _271
REMARK  108  A    between atoms: _270  and  _273
REMARK  109  A    between atoms: _273  and  _274
REMARK  110  A    between atoms: _274  and  _275
REMARK  111  A    between atoms: _275  and  _276
REMARK  112  A    between atoms: _276  and  _277
REMARK  113  A    between atoms: _281  and  _283
REMARK  114  A    between atoms: _283  and  _284
REMARK  115  A    between atoms: _283  and  _286
REMARK  116  A    between atoms: _286  and  _287
REMARK  117  A    between atoms: _290  and  _292
REMARK  118  A    between atoms: _292  and  _293
REMARK  119  A    between atoms: _292  and  _295
REMARK  120  A    between atoms: _295  and  _296
REMARK  121  A    between atoms: _296  and  _297
REMARK  122  A    between atoms: _302  and  _304
REMARK  123  A    between atoms: _304  and  _305
REMARK  124  A    between atoms: _304  and  _307
REMARK  125  A    between atoms: _307  and  _308
REMARK  126  A    between atoms: _311  and  _313
REMARK  127  A    between atoms: _313  and  _314
REMARK  128  A    between atoms: _313  and  _316
REMARK  129  A    between atoms: _316  and  _317
REMARK  130  A    between atoms: _322  and  _323
REMARK  131  A    between atoms: _325  and  _327
REMARK  132  A    between atoms: _327  and  _328
REMARK  133  A    between atoms: _327  and  _330
REMARK  134  A    between atoms: _330  and  _331
REMARK  135  A    between atoms: _334  and  _336
REMARK  136  A    between atoms: _336  and  _337
REMARK  137  A    between atoms: _336  and  _339
REMARK  138  A    between atoms: _341  and  _343
REMARK  139  A    between atoms: _343  and  _344
REMARK  140  A    between atoms: _347  and  _349
REMARK  141  A    between atoms: _349  and  _350
REMARK  142  A    between atoms: _349  and  _352
REMARK  143  A    between atoms: _352  and  _353
REMARK  144  A    between atoms: _356  and  _358
REMARK  145  A    between atoms: _358  and  _359
REMARK  146  A    between atoms: _362  and  _364
REMARK  147  A    between atoms: _364  and  _365
REMARK  148  A    between atoms: _364  and  _367
REMARK  149  A    between atoms: _367  and  _368
REMARK  150  A    between atoms: _368  and  _482
REMARK  151  A    between atoms: _369  and  _371
REMARK  152  A    between atoms: _371  and  _372
REMARK  153  A    between atoms: _371  and  _374
REMARK  154  A    between atoms: _374  and  _375
REMARK  155  A    between atoms: _375  and  _376
REMARK  156  A    between atoms: _376  and  _377
REMARK  157  A    between atoms: _377  and  _378
REMARK  158  A    between atoms: _382  and  _384
REMARK  159  A    between atoms: _384  and  _385
REMARK  160  A    between atoms: _387  and  _389
REMARK  161  A    between atoms: _389  and  _390
REMARK  162  A    between atoms: _389  and  _392
REMARK  163  A    between atoms: _392  and  _393
REMARK  164  A    between atoms: _396  and  _398
REMARK  165  A    between atoms: _398  and  _399
REMARK  166  A    between atoms: _398  and  _401
REMARK  167  A    between atoms: _401  and  _402
REMARK  168  A    between atoms: _404  and  _406
REMARK  169  A    between atoms: _406  and  _407
REMARK  170  A    between atoms: _409  and  _411
REMARK  171  A    between atoms: _411  and  _412
REMARK  172  A    between atoms: _414  and  _416
REMARK  173  A    between atoms: _416  and  _417
REMARK  174  A    between atoms: _416  and  _419
REMARK  175  A    between atoms: _419  and  _420
REMARK  176  A    between atoms: _423  and  _425
REMARK  177  A    between atoms: _425  and  _426
REMARK  178  A    between atoms: _425  and  _428
REMARK  179  A    between atoms: _428  and  _429
REMARK  180  A    between atoms: _432  and  _434
REMARK  181  A    between atoms: _434  and  _435
REMARK  182  A    between atoms: _434  and  _437
REMARK  183  A    between atoms: _437  and  _438
REMARK  184  A    between atoms: _440  and  _442
REMARK  185  A    between atoms: _442  and  _443
REMARK  186  A    between atoms: _442  and  _445
REMARK  187  A    between atoms: _445  and  _446
REMARK  188  A    between atoms: _456  and  _458
REMARK  189  A    between atoms: _458  and  _459
REMARK  190  A    between atoms: _461  and  _463
REMARK  191  A    between atoms: _463  and  _464
REMARK  192  A    between atoms: _463  and  _466
REMARK  193  A    between atoms: _466  and  _467
REMARK  194  A    between atoms: _467  and  _468
REMARK  195  A    between atoms: _471  and  _473
REMARK  196  A    between atoms: _473  and  _474
REMARK  197  A    between atoms: _476  and  _478
REMARK  198  A    between atoms: _478  and  _479
REMARK  199  A    between atoms: _478  and  _481
REMARK  200  A    between atoms: _481  and  _482
REMARK  201  A    between atoms: _483  and  _485
REMARK  202  A    between atoms: _485  and  _486
REMARK  203  A    between atoms: _489  and  _491
REMARK  204  A    between atoms: _491  and  _492
REMARK  205  A    between atoms: _491  and  _494
REMARK  206  A    between atoms: _494  and  _495
REMARK  207  A    between atoms: _495  and  _496
REMARK  208  A    between atoms: _501  and  _503
REMARK  209  A    between atoms: _503  and  _504
REMARK  210  A    between atoms: _503  and  _506
REMARK  211  A    between atoms: _506  and  _507
REMARK  212  A    between atoms: _507  and  _508
REMARK  213  A    between atoms: _508  and  _509
REMARK  214  A    between atoms: _519  and  _520
REMARK  215  A    between atoms: _525  and  _527
REMARK  216  A    between atoms: _527  and  _528
REMARK  217  A    between atoms: _530  and  _532
REMARK  218  A    between atoms: _532  and  _533
REMARK  219  A    between atoms: _532  and  _535
REMARK  220  A    between atoms: _538  and  _540
REMARK  221  A    between atoms: _540  and  _541
REMARK  222  A    between atoms: _540  and  _543
REMARK  223  A    between atoms: _543  and  _544
REMARK  224  A    between atoms: _549  and  _550
REMARK  225  A    between atoms: _552  and  _554
REMARK  226  A    between atoms: _554  and  _555
REMARK  227  A    between atoms: _554  and  _557
REMARK  228  A    between atoms: _557  and  _558
REMARK                            x       y       z     vdW  Elec       q    Type
REMARK                         _______ _______ _______ _____ _____    ______ ____
ROOT
ATOM      1  O   HOH     1     -52.330 -20.990 -26.045  0.00  0.00    +0.000 OA
ENDROOT
TORSDOF 0
REMARK  Name = ../refined-set-2016/4crc/4crc_pocket.pdb
REMARK  228 active torsions:
REMARK  status: ('A' for Active; 'I' for Inactive)
REMARK    1  A    between atoms: _1  and  _5
REMARK    2  A    between atoms: _5  and  _6
REMARK    3  A    between atoms: _5  and  _8
REMARK    4  A    between atoms: _8  and  _9
REMARK    5  A    between atoms: _12  and  _14
REMARK    6  A    between atoms: _14  and  _15
REMARK    7  A    between atoms: _14  and  _17
REMARK    8  A    between atoms: _20  and  _22
REMARK    9  A    between atoms: _22  and  _23
REMARK   10  A    between atoms: _22  and  _25
REMARK   11  A    between atoms: _25  and  _26
REMARK   12  A    between atoms: _26  and  _27
REMARK   13  A    between atoms: _27  and  _28
REMARK   14  A    between atoms: _37  and  _39
REMARK   15  A    between atoms: _39  and  _40
REMARK   16  A    between atoms: _39  and  _42
REMARK   17  A    between atoms: _42  and  _43
REMARK   18  A    between atoms: _48  and  _50
REMARK   19  A    between atoms: _50  and  _51
REMARK   20  A    between atoms: _50  and  _53
REMARK   21  A    between atoms: _53  and  _54
REMARK   22  A    between atoms: _57  and  _59
REMARK   23  A    between atoms: _59  and  _60
REMARK   24  A    between atoms: _59  and  _62
REMARK   25  A    between atoms: _62  and  _63
REMARK   26  A    between atoms: _63  and  _98
REMARK   27  A    between atoms: _64  and  _66
REMARK   28  A    between atoms: _66  and  _67
REMARK   29  A    between atoms: _69  and  _71
REMARK   30  A    between atoms: _71  and  _72
REMARK   31  A    between atoms: _75  and  _77
REMARK   32  A    between atoms: _77  and  _78
REMARK   33  A    between atoms: _81  and  _83
REMARK   34  A    between atoms: _83  and  _84
REMARK   35  A    between atoms: _83  and  _86
REMARK   36  A    between atoms: _86  and  _87
REMARK   37  A    between atoms: _92  and  _94
REMARK   38  A    between atoms: _94  and  _95
REMARK   39  A    between atoms: _94  and  _97
REMARK   40  A    between atoms: _97  and  _98
REMARK   41  A    between atoms: _99  and  _101
REMARK   42  A    between atoms: _101  and  _102
REMARK   43  A    between atoms: _101  and  _104
REMARK   44  A    between atoms: _104  and  _105
REMARK   45  A    between atoms: _111  and  _113
REMARK   46  A    between atoms: _113  and  _114
REMARK   47  A    between atoms: _113  and  _116
REMARK   48  A    between atoms: _116  and  _117
REMARK   49  A    between atoms: _122  and  _123
REMARK   50  A    between atoms: _125  and  _127
REMARK   51  A    between atoms: _127  and  _128
REMARK   52  A    between atoms: _130  and  _132
REMARK   53  A    between atoms: _132  and  _133
REMARK   54  A    between atoms: _132  and  _135
REMARK   55  A    between atoms: _138  and  _140
REMARK   56  A    between atoms: _140  and  _141
REMARK   57  A    between atoms: _140  and  _143
REMARK   58  A    between atoms: _143  and  _144
REMARK   59  A    between atoms: _149  and  _150
REMARK   60  A    between atoms: _152  and  _154
REMARK   61  A    between atoms: _154  and  _155
REMARK   62  A    between atoms: _158  and  _160
REMARK   63  A    between atoms: _160  and  _161
REMARK   64  A    between atoms: _160  and  _163
REMARK   65  A    between atoms: _163  and  _164
REMARK   66  A    between atoms: _164  and  _165
REMARK   67  A    between atoms: _168  and  _170
REMARK   68  A    between atoms: _170  and  _171
REMARK   69  A    between atoms: _170  and  _173
REMARK   70  A    between atoms: _173  and  _174
REMARK   71  A    between atoms: _177  and  _179
REMARK   72  A    between atoms: _179  and  _180
REMARK   73  A    between atoms: _179  and  _182
REMARK   74  A    between atoms: _185  and  _187
REMARK   75  A    between atoms: _187  and  _188
REMARK   76  A    between atoms: _187  and  _190
REMARK   77  A    between atoms: _190  and  _191
REMARK   78  A    between atoms: _201  and  _203
REMARK   79  A    between atoms: _203  and  _204
REMARK   80  A    between atoms: _206  and  _208
REMARK   81  A    between atoms: _208  and  _209
REMARK   82  A    between atoms: _208  and  _211
REMARK   83  A    between atoms: _211  and  _212
REMARK   84  A    between atoms: _217  and  _218
REMARK   85  A    between atoms: _220  and  _222
REMARK   86  A    between atoms: _222  and  _223
REMARK   87  A    between atoms: _222  and  _225
REMARK   88  A    between atoms: _225  and  _226
REMARK   89  A    between atoms: _226  and  _227
REMARK   90  A    between atoms: _227  and  _228
REMARK   91  A    between atoms: _228  and  _229
REMARK   92  A    between atoms: _233  and  _235
REMARK   93  A    between atoms: _235  and  _236
REMARK   94  A    between atoms: _235  and  _238
REMARK   95  A    between atoms: _238  and  _239
REMARK   96  A    between atoms: _242  and  _244
REMARK   97  A    between atoms: _244  and  _245
REMARK   98  A    between atoms: _244  and  _247
REMARK   99  A    between atoms: _247  and  _248
REMARK  100  A    between atoms: _248  and  _249
REMARK  101  A    between atoms: _249  and  _250
REMARK  102  A    between atoms: _259  and  _261
REMARK  103  A    between atoms: _261  and  _262
REMARK  104  A    between atoms: _261  and  _264
REMARK  105  A    between atoms: _264  and  _265
REMARK  106  A    between atoms: _268  and  _270
REMARK  107  A    between atoms: _270  and  _271
REMARK  108  A    between atoms: _270  and  _273
REMARK  109  A    between atoms: _273  and  _274
REMARK  110  A    between atoms: _274  and  _275
REMARK  111  A    between atoms: _275  and  _276
REMARK  112  A    between atoms: _276  and  _277
REMARK  113  A    between atoms: _281  and  _283
REMARK  114  A    between atoms: _283  and  _284
REMARK  115  A    between atoms: _283  and  _286
REMARK  116  A    between atoms: _286  and  _287
REMARK  117  A    between atoms: _290  and  _292
REMARK  118  A    between atoms: _292  and  _293
REMARK  119  A    between atoms: _292  and  _295
REMARK  120  A    between atoms: _295  and  _296
REMARK  121  A    between atoms: _296  and  _297
REMARK  122  A    between atoms: _302  and  _304
REMARK  123  A    between atoms: _304  and  _305
REMARK  124  A    between atoms: _304  and  _307
REMARK  125  A    between atoms: _307  and  _308
REMARK  126  A    between atoms: _311  and  _313
REMARK  127  A    between atoms: _313  and  _314
REMARK  128  A    between atoms: _313  and  _316
REMARK  129  A    between atoms: _316  and  _317
REMARK  130  A    between atoms: _322  and  _323
REMARK  131  A    between atoms: _325  and  _327
REMARK  132  A    between atoms: _327  and  _328
REMARK  133  A    between atoms: _327  and  _330
REMARK  134  A    between atoms: _330  and  _331
REMARK  135  A    between atoms: _334  and  _336
REMARK  136  A    between atoms: _336  and  _337
REMARK  137  A    between atoms: _336  and  _339
REMARK  138  A    between atoms: _341  and  _343
REMARK  139  A    between atoms: _343  and  _344
REMARK  140  A    between atoms: _347  and  _349
REMARK  141  A    between atoms: _349  and  _350
REMARK  142  A    between atoms: _349  and  _352
REMARK  143  A    between atoms: _352  and  _353
REMARK  144  A    between atoms: _356  and  _358
REMARK  145  A    between atoms: _358  and  _359
REMARK  146  A    between atoms: _362  and  _364
REMARK  147  A    between atoms: _364  and  _365
REMARK  148  A    between atoms: _364  and  _367
REMARK  149  A    between atoms: _367  and  _368
REMARK  150  A    between atoms: _368  and  _482
REMARK  151  A    between atoms: _369  and  _371
REMARK  152  A    between atoms: _371  and  _372
REMARK  153  A    between atoms: _371  and  _374
REMARK  154  A    between atoms: _374  and  _375
REMARK  155  A    between atoms: _375  and  _376
REMARK  156  A    between atoms: _376  and  _377
REMARK  157  A    between atoms: _377  and  _378
REMARK  158  A    between atoms: _382  and  _384
REMARK  159  A    between atoms: _384  and  _385
REMARK  160  A    between atoms: _387  and  _389
REMARK  161  A    between atoms: _389  and  _390
REMARK  162  A    between atoms: _389  and  _392
REMARK  163  A    between atoms: _392  and  _393
REMARK  164  A    between atoms: _396  and  _398
REMARK  165  A    between atoms: _398  and  _399
REMARK  166  A    between atoms: _398  and  _401
REMARK  167  A    between atoms: _401  and  _402
REMARK  168  A    between atoms: _404  and  _406
REMARK  169  A    between atoms: _406  and  _407
REMARK  170  A    between atoms: _409  and  _411
REMARK  171  A    between atoms: _411  and  _412
REMARK  172  A    between atoms: _414  and  _416
REMARK  173  A    between atoms: _416  and  _417
REMARK  174  A    between atoms: _416  and  _419
REMARK  175  A    between atoms: _419  and  _420
REMARK  176  A    between atoms: _423  and  _425
REMARK  177  A    between atoms: _425  and  _426
REMARK  178  A    between atoms: _425  and  _428
REMARK  179  A    between atoms: _428  and  _429
REMARK  180  A    between atoms: _432  and  _434
REMARK  181  A    between atoms: _434  and  _435
REMARK  182  A    between atoms: _434  and  _437
REMARK  183  A    between atoms: _437  and  _438
REMARK  184  A    between atoms: _440  and  _442
REMARK  185  A    between atoms: _442  and  _443
REMARK  186  A    between atoms: _442  and  _445
REMARK  187  A    between atoms: _445  and  _446
REMARK  188  A    between atoms: _456  and  _458
REMARK  189  A    between atoms: _458  and  _459
REMARK  190  A    between atoms: _461  and  _463
REMARK  191  A    between atoms: _463  and  _464
REMARK  192  A    between atoms: _463  and  _466
REMARK  193  A    between atoms: _466  and  _467
REMARK  194  A    between atoms: _467  and  _468
REMARK  195  A    between atoms: _471  and  _473
REMARK  196  A    between atoms: _473  and  _474
REMARK  197  A    between atoms: _476  and  _478
REMARK  198  A    between atoms: _478  and  _479
REMARK  199  A    between atoms: _478  and  _481
REMARK  200  A    between atoms: _481  and  _482
REMARK  201  A    between atoms: _483  and  _485
REMARK  202  A    between atoms: _485  and  _486
REMARK  203  A    between atoms: _489  and  _491
REMARK  204  A    between atoms: _491  and  _492
REMARK  205  A    between atoms: _491  and  _494
REMARK  206  A    between atoms: _494  and  _495
REMARK  207  A    between atoms: _495  and  _496
REMARK  208  A    between atoms: _501  and  _503
REMARK  209  A    between atoms: _503  and  _504
REMARK  210  A    between atoms: _503  and  _506
REMARK  211  A    between atoms: _506  and  _507
REMARK  212  A    between atoms: _507  and  _508
REMARK  213  A    between atoms: _508  and  _509
REMARK  214  A    between atoms: _519  and  _520
REMARK  215  A    between atoms: _525  and  _527
REMARK  216  A    between atoms: _527  and  _528
REMARK  217  A    between atoms: _530  and  _532
REMARK  218  A    between atoms: _532  and  _533
REMARK  219  A    between atoms: _532  and  _535
REMARK  220  A    between atoms: _538  and  _540
REMARK  221  A    between atoms: _540  and  _541
REMARK  222  A    between atoms: _540  and  _543
REMARK  223  A    between atoms: _543  and  _544
REMARK  224  A    between atoms: _549  and  _550
REMARK  225  A    between atoms: _552  and  _554
REMARK  226  A    between atoms: _554  and  _555
REMARK  227  A    between atoms: _554  and  _557
REMARK  228  A    between atoms: _557  and  _558
REMARK                            x       y       z     vdW  Elec       q    Type
REMARK                         _______ _______ _______ _____ _____    ______ ____
ROOT
ATOM      1  O   HOH     1     -50.344 -19.132 -21.416  0.00  0.00    +0.000 OA
ENDROOT
TORSDOF 0
REMARK  Name = ../refined-set-2016/4crc/4crc_pocket.pdb
REMARK  228 active torsions:
REMARK  status: ('A' for Active; 'I' for Inactive)
REMARK    1  A    between atoms: _1  and  _5
REMARK    2  A    between atoms: _5  and  _6
REMARK    3  A    between atoms: _5  and  _8
REMARK    4  A    between atoms: _8  and  _9
REMARK    5  A    between atoms: _12  and  _14
REMARK    6  A    between atoms: _14  and  _15
REMARK    7  A    between atoms: _14  and  _17
REMARK    8  A    between atoms: _20  and  _22
REMARK    9  A    between atoms: _22  and  _23
REMARK   10  A    between atoms: _22  and  _25
REMARK   11  A    between atoms: _25  and  _26
REMARK   12  A    between atoms: _26  and  _27
REMARK   13  A    between atoms: _27  and  _28
REMARK   14  A    between atoms: _37  and  _39
REMARK   15  A    between atoms: _39  and  _40
REMARK   16  A    between atoms: _39  and  _42
REMARK   17  A    between atoms: _42  and  _43
REMARK   18  A    between atoms: _48  and  _50
REMARK   19  A    between atoms: _50  and  _51
REMARK   20  A    between atoms: _50  and  _53
REMARK   21  A    between atoms: _53  and  _54
REMARK   22  A    between atoms: _57  and  _59
REMARK   23  A    between atoms: _59  and  _60
REMARK   24  A    between atoms: _59  and  _62
REMARK   25  A    between atoms: _62  and  _63
REMARK   26  A    between atoms: _63  and  _98
REMARK   27  A    between atoms: _64  and  _66
REMARK   28  A    between atoms: _66  and  _67
REMARK   29  A    between atoms: _69  and  _71
REMARK   30  A    between atoms: _71  and  _72
REMARK   31  A    between atoms: _75  and  _77
REMARK   32  A    between atoms: _77  and  _78
REMARK   33  A    between atoms: _81  and  _83
REMARK   34  A    between atoms: _83  and  _84
REMARK   35  A    between atoms: _83  and  _86
REMARK   36  A    between atoms: _86  and  _87
REMARK   37  A    between atoms: _92  and  _94
REMARK   38  A    between atoms: _94  and  _95
REMARK   39  A    between atoms: _94  and  _97
REMARK   40  A    between atoms: _97  and  _98
REMARK   41  A    between atoms: _99  and  _101
REMARK   42  A    between atoms: _101  and  _102
REMARK   43  A    between atoms: _101  and  _104
REMARK   44  A    between atoms: _104  and  _105
REMARK   45  A    between atoms: _111  and  _113
REMARK   46  A    between atoms: _113  and  _114
REMARK   47  A    between atoms: _113  and  _116
REMARK   48  A    between atoms: _116  and  _117
REMARK   49  A    between atoms: _122  and  _123
REMARK   50  A    between atoms: _125  and  _127
REMARK   51  A    between atoms: _127  and  _128
REMARK   52  A    between atoms: _130  and  _132
REMARK   53  A    between atoms: _132  and  _133
REMARK   54  A    between atoms: _132  and  _135
REMARK   55  A    between atoms: _138  and  _140
REMARK   56  A    between atoms: _140  and  _141
REMARK   57  A    between atoms: _140  and  _143
REMARK   58  A    between atoms: _143  and  _144
REMARK   59  A    between atoms: _149  and  _150
REMARK   60  A    between atoms: _152  and  _154
REMARK   61  A    between atoms: _154  and  _155
REMARK   62  A    between atoms: _158  and  _160
REMARK   63  A    between atoms: _160  and  _161
REMARK   64  A    between atoms: _160  and  _163
REMARK   65  A    between atoms: _163  and  _164
REMARK   66  A    between atoms: _164  and  _165
REMARK   67  A    between atoms: _168  and  _170
REMARK   68  A    between atoms: _170  and  _171
REMARK   69  A    between atoms: _170  and  _173
REMARK   70  A    between atoms: _173  and  _174
REMARK   71  A    between atoms: _177  and  _179
REMARK   72  A    between atoms: _179  and  _180
REMARK   73  A    between atoms: _179  and  _182
REMARK   74  A    between atoms: _185  and  _187
REMARK   75  A    between atoms: _187  and  _188
REMARK   76  A    between atoms: _187  and  _190
REMARK   77  A    between atoms: _190  and  _191
REMARK   78  A    between atoms: _201  and  _203
REMARK   79  A    between atoms: _203  and  _204
REMARK   80  A    between atoms: _206  and  _208
REMARK   81  A    between atoms: _208  and  _209
REMARK   82  A    between atoms: _208  and  _211
REMARK   83  A    between atoms: _211  and  _212
REMARK   84  A    between atoms: _217  and  _218
REMARK   85  A    between atoms: _220  and  _222
REMARK   86  A    between atoms: _222  and  _223
REMARK   87  A    between atoms: _222  and  _225
REMARK   88  A    between atoms: _225  and  _226
REMARK   89  A    between atoms: _226  and  _227
REMARK   90  A    between atoms: _227  and  _228
REMARK   91  A    between atoms: _228  and  _229
REMARK   92  A    between atoms: _233  and  _235
REMARK   93  A    between atoms: _235  and  _236
REMARK   94  A    between atoms: _235  and  _238
REMARK   95  A    between atoms: _238  and  _239
REMARK   96  A    between atoms: _242  and  _244
REMARK   97  A    between atoms: _244  and  _245
REMARK   98  A    between atoms: _244  and  _247
REMARK   99  A    between atoms: _247  and  _248
REMARK  100  A    between atoms: _248  and  _249
REMARK  101  A    between atoms: _249  and  _250
REMARK  102  A    between atoms: _259  and  _261
REMARK  103  A    between atoms: _261  and  _262
REMARK  104  A    between atoms: _261  and  _264
REMARK  105  A    between atoms: _264  and  _265
REMARK  106  A    between atoms: _268  and  _270
REMARK  107  A    between atoms: _270  and  _271
REMARK  108  A    between atoms: _270  and  _273
REMARK  109  A    between atoms: _273  and  _274
REMARK  110  A    between atoms: _274  and  _275
REMARK  111  A    between atoms: _275  and  _276
REMARK  112  A    between atoms: _276  and  _277
REMARK  113  A    between atoms: _281  and  _283
REMARK  114  A    between atoms: _283  and  _284
REMARK  115  A    between atoms: _283  and  _286
REMARK  116  A    between atoms: _286  and  _287
REMARK  117  A    between atoms: _290  and  _292
REMARK  118  A    between atoms: _292  and  _293
REMARK  119  A    between atoms: _292  and  _295
REMARK  120  A    between atoms: _295  and  _296
REMARK  121  A    between atoms: _296  and  _297
REMARK  122  A    between atoms: _302  and  _304
REMARK  123  A    between atoms: _304  and  _305
REMARK  124  A    between atoms: _304  and  _307
REMARK  125  A    between atoms: _307  and  _308
REMARK  126  A    between atoms: _311  and  _313
REMARK  127  A    between atoms: _313  and  _314
REMARK  128  A    between atoms: _313  and  _316
REMARK  129  A    between atoms: _316  and  _317
REMARK  130  A    between atoms: _322  and  _323
REMARK  131  A    between atoms: _325  and  _327
REMARK  132  A    between atoms: _327  and  _328
REMARK  133  A    between atoms: _327  and  _330
REMARK  134  A    between atoms: _330  and  _331
REMARK  135  A    between atoms: _334  and  _336
REMARK  136  A    between atoms: _336  and  _337
REMARK  137  A    between atoms: _336  and  _339
REMARK  138  A    between atoms: _341  and  _343
REMARK  139  A    between atoms: _343  and  _344
REMARK  140  A    between atoms: _347  and  _349
REMARK  141  A    between atoms: _349  and  _350
REMARK  142  A    between atoms: _349  and  _352
REMARK  143  A    between atoms: _352  and  _353
REMARK  144  A    between atoms: _356  and  _358
REMARK  145  A    between atoms: _358  and  _359
REMARK  146  A    between atoms: _362  and  _364
REMARK  147  A    between atoms: _364  and  _365
REMARK  148  A    between atoms: _364  and  _367
REMARK  149  A    between atoms: _367  and  _368
REMARK  150  A    between atoms: _368  and  _482
REMARK  151  A    between atoms: _369  and  _371
REMARK  152  A    between atoms: _371  and  _372
REMARK  153  A    between atoms: _371  and  _374
REMARK  154  A    between atoms: _374  and  _375
REMARK  155  A    between atoms: _375  and  _376
REMARK  156  A    between atoms: _376  and  _377
REMARK  157  A    between atoms: _377  and  _378
REMARK  158  A    between atoms: _382  and  _384
REMARK  159  A    between atoms: _384  and  _385
REMARK  160  A    between atoms: _387  and  _389
REMARK  161  A    between atoms: _389  and  _390
REMARK  162  A    between atoms: _389  and  _392
REMARK  163  A    between atoms: _392  and  _393
REMARK  164  A    between atoms: _396  and  _398
REMARK  165  A    between atoms: _398  and  _399
REMARK  166  A    between atoms: _398  and  _401
REMARK  167  A    between atoms: _401  and  _402
REMARK  168  A    between atoms: _404  and  _406
REMARK  169  A    between atoms: _406  and  _407
REMARK  170  A    between atoms: _409  and  _411
REMARK  171  A    between atoms: _411  and  _412
REMARK  172  A    between atoms: _414  and  _416
REMARK  173  A    between atoms: _416  and  _417
REMARK  174  A    between atoms: _416  and  _419
REMARK  175  A    between atoms: _419  and  _420
REMARK  176  A    between atoms: _423  and  _425
REMARK  177  A    between atoms: _425  and  _426
REMARK  178  A    between atoms: _425  and  _428
REMARK  179  A    between atoms: _428  and  _429
REMARK  180  A    between atoms: _432  and  _434
REMARK  181  A    between atoms: _434  and  _435
REMARK  182  A    between atoms: _434  and  _437
REMARK  183  A    between atoms: _437  and  _438
REMARK  184  A    between atoms: _440  and  _442
REMARK  185  A    between atoms: _442  and  _443
REMARK  186  A    between atoms: _442  and  _445
REMARK  187  A    between atoms: _445  and  _446
REMARK  188  A    between atoms: _456  and  _458
REMARK  189  A    between atoms: _458  and  _459
REMARK  190  A    between atoms: _461  and  _463
REMARK  191  A    between atoms: _463  and  _464
REMARK  192  A    between atoms: _463  and  _466
REMARK  193  A    between atoms: _466  and  _467
REMARK  194  A    between atoms: _467  and  _468
REMARK  195  A    between atoms: _471  and  _473
REMARK  196  A    between atoms: _473  and  _474
REMARK  197  A    between atoms: _476  and  _478
REMARK  198  A    between atoms: _478  and  _479
REMARK  199  A    between atoms: _478  and  _481
REMARK  200  A    between atoms: _481  and  _482
REMARK  201  A    between atoms: _483  and  _485
REMARK  202  A    between atoms: _485  and  _486
REMARK  203  A    between atoms: _489  and  _491
REMARK  204  A    between atoms: _491  and  _492
REMARK  205  A    between atoms: _491  and  _494
REMARK  206  A    between atoms: _494  and  _495
REMARK  207  A    between atoms: _495  and  _496
REMARK  208  A    between atoms: _501  and  _503
REMARK  209  A    between atoms: _503  and  _504
REMARK  210  A    between atoms: _503  and  _506
REMARK  211  A    between atoms: _506  and  _507
REMARK  212  A    between atoms: _507  and  _508
REMARK  213  A    between atoms: _508  and  _509
REMARK  214  A    between atoms: _519  and  _520
REMARK  215  A    between atoms: _525  and  _527
REMARK  216  A    between atoms: _527  and  _528
REMARK  217  A    between atoms: _530  and  _532
REMARK  218  A    between atoms: _532  and  _533
REMARK  219  A    between atoms: _532  and  _535
REMARK  220  A    between atoms: _538  and  _540
REMARK  221  A    between atoms: _540  and  _541
REMARK  222  A    between atoms: _540  and  _543
REMARK  223  A    between atoms: _543  and  _544
REMARK  224  A    between atoms: _549  and  _550
REMARK  225  A    between atoms: _552  and  _554
REMARK  226  A    between atoms: _554  and  _555
REMARK  227  A    between atoms: _554  and  _557
REMARK  228  A    between atoms: _557  and  _558
REMARK                            x       y       z     vdW  Elec       q    Type
REMARK                         _______ _______ _______ _____ _____    ______ ____
ROOT
ATOM      1  O   HOH     1     -50.420 -16.975 -15.125  0.00  0.00    +0.000 OA
ENDROOT
TORSDOF 0
REMARK  Name = ../refined-set-2016/4crc/4crc_pocket.pdb
REMARK  228 active torsions:
REMARK  status: ('A' for Active; 'I' for Inactive)
REMARK    1  A    between atoms: _1  and  _5
REMARK    2  A    between atoms: _5  and  _6
REMARK    3  A    between atoms: _5  and  _8
REMARK    4  A    between atoms: _8  and  _9
REMARK    5  A    between atoms: _12  and  _14
REMARK    6  A    between atoms: _14  and  _15
REMARK    7  A    between atoms: _14  and  _17
REMARK    8  A    between atoms: _20  and  _22
REMARK    9  A    between atoms: _22  and  _23
REMARK   10  A    between atoms: _22  and  _25
REMARK   11  A    between atoms: _25  and  _26
REMARK   12  A    between atoms: _26  and  _27
REMARK   13  A    between atoms: _27  and  _28
REMARK   14  A    between atoms: _37  and  _39
REMARK   15  A    between atoms: _39  and  _40
REMARK   16  A    between atoms: _39  and  _42
REMARK   17  A    between atoms: _42  and  _43
REMARK   18  A    between atoms: _48  and  _50
REMARK   19  A    between atoms: _50  and  _51
REMARK   20  A    between atoms: _50  and  _53
REMARK   21  A    between atoms: _53  and  _54
REMARK   22  A    between atoms: _57  and  _59
REMARK   23  A    between atoms: _59  and  _60
REMARK   24  A    between atoms: _59  and  _62
REMARK   25  A    between atoms: _62  and  _63
REMARK   26  A    between atoms: _63  and  _98
REMARK   27  A    between atoms: _64  and  _66
REMARK   28  A    between atoms: _66  and  _67
REMARK   29  A    between atoms: _69  and  _71
REMARK   30  A    between atoms: _71  and  _72
REMARK   31  A    between atoms: _75  and  _77
REMARK   32  A    between atoms: _77  and  _78
REMARK   33  A    between atoms: _81  and  _83
REMARK   34  A    between atoms: _83  and  _84
REMARK   35  A    between atoms: _83  and  _86
REMARK   36  A    between atoms: _86  and  _87
REMARK   37  A    between atoms: _92  and  _94
REMARK   38  A    between atoms: _94  and  _95
REMARK   39  A    between atoms: _94  and  _97
REMARK   40  A    between atoms: _97  and  _98
REMARK   41  A    between atoms: _99  and  _101
REMARK   42  A    between atoms: _101  and  _102
REMARK   43  A    between atoms: _101  and  _104
REMARK   44  A    between atoms: _104  and  _105
REMARK   45  A    between atoms: _111  and  _113
REMARK   46  A    between atoms: _113  and  _114
REMARK   47  A    between atoms: _113  and  _116
REMARK   48  A    between atoms: _116  and  _117
REMARK   49  A    between atoms: _122  and  _123
REMARK   50  A    between atoms: _125  and  _127
REMARK   51  A    between atoms: _127  and  _128
REMARK   52  A    between atoms: _130  and  _132
REMARK   53  A    between atoms: _132  and  _133
REMARK   54  A    between atoms: _132  and  _135
REMARK   55  A    between atoms: _138  and  _140
REMARK   56  A    between atoms: _140  and  _141
REMARK   57  A    between atoms: _140  and  _143
REMARK   58  A    between atoms: _143  and  _144
REMARK   59  A    between atoms: _149  and  _150
REMARK   60  A    between atoms: _152  and  _154
REMARK   61  A    between atoms: _154  and  _155
REMARK   62  A    between atoms: _158  and  _160
REMARK   63  A    between atoms: _160  and  _161
REMARK   64  A    between atoms: _160  and  _163
REMARK   65  A    between atoms: _163  and  _164
REMARK   66  A    between atoms: _164  and  _165
REMARK   67  A    between atoms: _168  and  _170
REMARK   68  A    between atoms: _170  and  _171
REMARK   69  A    between atoms: _170  and  _173
REMARK   70  A    between atoms: _173  and  _174
REMARK   71  A    between atoms: _177  and  _179
REMARK   72  A    between atoms: _179  and  _180
REMARK   73  A    between atoms: _179  and  _182
REMARK   74  A    between atoms: _185  and  _187
REMARK   75  A    between atoms: _187  and  _188
REMARK   76  A    between atoms: _187  and  _190
REMARK   77  A    between atoms: _190  and  _191
REMARK   78  A    between atoms: _201  and  _203
REMARK   79  A    between atoms: _203  and  _204
REMARK   80  A    between atoms: _206  and  _208
REMARK   81  A    between atoms: _208  and  _209
REMARK   82  A    between atoms: _208  and  _211
REMARK   83  A    between atoms: _211  and  _212
REMARK   84  A    between atoms: _217  and  _218
REMARK   85  A    between atoms: _220  and  _222
REMARK   86  A    between atoms: _222  and  _223
REMARK   87  A    between atoms: _222  and  _225
REMARK   88  A    between atoms: _225  and  _226
REMARK   89  A    between atoms: _226  and  _227
REMARK   90  A    between atoms: _227  and  _228
REMARK   91  A    between atoms: _228  and  _229
REMARK   92  A    between atoms: _233  and  _235
REMARK   93  A    between atoms: _235  and  _236
REMARK   94  A    between atoms: _235  and  _238
REMARK   95  A    between atoms: _238  and  _239
REMARK   96  A    between atoms: _242  and  _244
REMARK   97  A    between atoms: _244  and  _245
REMARK   98  A    between atoms: _244  and  _247
REMARK   99  A    between atoms: _247  and  _248
REMARK  100  A    between atoms: _248  and  _249
REMARK  101  A    between atoms: _249  and  _250
REMARK  102  A    between atoms: _259  and  _261
REMARK  103  A    between atoms: _261  and  _262
REMARK  104  A    between atoms: _261  and  _264
REMARK  105  A    between atoms: _264  and  _265
REMARK  106  A    between atoms: _268  and  _270
REMARK  107  A    between atoms: _270  and  _271
REMARK  108  A    between atoms: _270  and  _273
REMARK  109  A    between atoms: _273  and  _274
REMARK  110  A    between atoms: _274  and  _275
REMARK  111  A    between atoms: _275  and  _276
REMARK  112  A    between atoms: _276  and  _277
REMARK  113  A    between atoms: _281  and  _283
REMARK  114  A    between atoms: _283  and  _284
REMARK  115  A    between atoms: _283  and  _286
REMARK  116  A    between atoms: _286  and  _287
REMARK  117  A    between atoms: _290  and  _292
REMARK  118  A    between atoms: _292  and  _293
REMARK  119  A    between atoms: _292  and  _295
REMARK  120  A    between atoms: _295  and  _296
REMARK  121  A    between atoms: _296  and  _297
REMARK  122  A    between atoms: _302  and  _304
REMARK  123  A    between atoms: _304  and  _305
REMARK  124  A    between atoms: _304  and  _307
REMARK  125  A    between atoms: _307  and  _308
REMARK  126  A    between atoms: _311  and  _313
REMARK  127  A    between atoms: _313  and  _314
REMARK  128  A    between atoms: _313  and  _316
REMARK  129  A    between atoms: _316  and  _317
REMARK  130  A    between atoms: _322  and  _323
REMARK  131  A    between atoms: _325  and  _327
REMARK  132  A    between atoms: _327  and  _328
REMARK  133  A    between atoms: _327  and  _330
REMARK  134  A    between atoms: _330  and  _331
REMARK  135  A    between atoms: _334  and  _336
REMARK  136  A    between atoms: _336  and  _337
REMARK  137  A    between atoms: _336  and  _339
REMARK  138  A    between atoms: _341  and  _343
REMARK  139  A    between atoms: _343  and  _344
REMARK  140  A    between atoms: _347  and  _349
REMARK  141  A    between atoms: _349  and  _350
REMARK  142  A    between atoms: _349  and  _352
REMARK  143  A    between atoms: _352  and  _353
REMARK  144  A    between atoms: _356  and  _358
REMARK  145  A    between atoms: _358  and  _359
REMARK  146  A    between atoms: _362  and  _364
REMARK  147  A    between atoms: _364  and  _365
REMARK  148  A    between atoms: _364  and  _367
REMARK  149  A    between atoms: _367  and  _368
REMARK  150  A    between atoms: _368  and  _482
REMARK  151  A    between atoms: _369  and  _371
REMARK  152  A    between atoms: _371  and  _372
REMARK  153  A    between atoms: _371  and  _374
REMARK  154  A    between atoms: _374  and  _375
REMARK  155  A    between atoms: _375  and  _376
REMARK  156  A    between atoms: _376  and  _377
REMARK  157  A    between atoms: _377  and  _378
REMARK  158  A    between atoms: _382  and  _384
REMARK  159  A    between atoms: _384  and  _385
REMARK  160  A    between atoms: _387  and  _389
REMARK  161  A    between atoms: _389  and  _390
REMARK  162  A    between atoms: _389  and  _392
REMARK  163  A    between atoms: _392  and  _393
REMARK  164  A    between atoms: _396  and  _398
REMARK  165  A    between atoms: _398  and  _399
REMARK  166  A    between atoms: _398  and  _401
REMARK  167  A    between atoms: _401  and  _402
REMARK  168  A    between atoms: _404  and  _406
REMARK  169  A    between atoms: _406  and  _407
REMARK  170  A    between atoms: _409  and  _411
REMARK  171  A    between atoms: _411  and  _412
REMARK  172  A    between atoms: _414  and  _416
REMARK  173  A    between atoms: _416  and  _417
REMARK  174  A    between atoms: _416  and  _419
REMARK  175  A    between atoms: _419  and  _420
REMARK  176  A    between atoms: _423  and  _425
REMARK  177  A    between atoms: _425  and  _426
REMARK  178  A    between atoms: _425  and  _428
REMARK  179  A    between atoms: _428  and  _429
REMARK  180  A    between atoms: _432  and  _434
REMARK  181  A    between atoms: _434  and  _435
REMARK  182  A    between atoms: _434  and  _437
REMARK  183  A    between atoms: _437  and  _438
REMARK  184  A    between atoms: _440  and  _442
REMARK  185  A    between atoms: _442  and  _443
REMARK  186  A    between atoms: _442  and  _445
REMARK  187  A    between atoms: _445  and  _446
REMARK  188  A    between atoms: _456  and  _458
REMARK  189  A    between atoms: _458  and  _459
REMARK  190  A    between atoms: _461  and  _463
REMARK  191  A    between atoms: _463  and  _464
REMARK  192  A    between atoms: _463  and  _466
REMARK  193  A    between atoms: _466  and  _467
REMARK  194  A    between atoms: _467  and  _468
REMARK  195  A    between atoms: _471  and  _473
REMARK  196  A    between atoms: _473  and  _474
REMARK  197  A    between atoms: _476  and  _478
REMARK  198  A    between atoms: _478  and  _479
REMARK  199  A    between atoms: _478  and  _481
REMARK  200  A    between atoms: _481  and  _482
REMARK  201  A    between atoms: _483  and  _485
REMARK  202  A    between atoms: _485  and  _486
REMARK  203  A    between atoms: _489  and  _491
REMARK  204  A    between atoms: _491  and  _492
REMARK  205  A    between atoms: _491  and  _494
REMARK  206  A    between atoms: _494  and  _495
REMARK  207  A    between atoms: _495  and  _496
REMARK  208  A    between atoms: _501  and  _503
REMARK  209  A    between atoms: _503  and  _504
REMARK  210  A    between atoms: _503  and  _506
REMARK  211  A    between atoms: _506  and  _507
REMARK  212  A    between atoms: _507  and  _508
REMARK  213  A    between atoms: _508  and  _509
REMARK  214  A    between atoms: _519  and  _520
REMARK  215  A    between atoms: _525  and  _527
REMARK  216  A    between atoms: _527  and  _528
REMARK  217  A    between atoms: _530  and  _532
REMARK  218  A    between atoms: _532  and  _533
REMARK  219  A    between atoms: _532  and  _535
REMARK  220  A    between atoms: _538  and  _540
REMARK  221  A    between atoms: _540  and  _541
REMARK  222  A    between atoms: _540  and  _543
REMARK  223  A    between atoms: _543  and  _544
REMARK  224  A    between atoms: _549  and  _550
REMARK  225  A    between atoms: _552  and  _554
REMARK  226  A    between atoms: _554  and  _555
REMARK  227  A    between atoms: _554  and  _557
REMARK  228  A    between atoms: _557  and  _558
REMARK                            x       y       z     vdW  Elec       q    Type
REMARK                         _______ _______ _______ _____ _____    ______ ____
ROOT
ATOM      1  O   HOH     1     -50.858 -16.561 -20.078  0.00  0.00    +0.000 OA
ENDROOT
TORSDOF 0
REMARK  Name = ../refined-set-2016/4crc/4crc_pocket.pdb
REMARK  228 active torsions:
REMARK  status: ('A' for Active; 'I' for Inactive)
REMARK    1  A    between atoms: _1  and  _5
REMARK    2  A    between atoms: _5  and  _6
REMARK    3  A    between atoms: _5  and  _8
REMARK    4  A    between atoms: _8  and  _9
REMARK    5  A    between atoms: _12  and  _14
REMARK    6  A    between atoms: _14  and  _15
REMARK    7  A    between atoms: _14  and  _17
REMARK    8  A    between atoms: _20  and  _22
REMARK    9  A    between atoms: _22  and  _23
REMARK   10  A    between atoms: _22  and  _25
REMARK   11  A    between atoms: _25  and  _26
REMARK   12  A    between atoms: _26  and  _27
REMARK   13  A    between atoms: _27  and  _28
REMARK   14  A    between atoms: _37  and  _39
REMARK   15  A    between atoms: _39  and  _40
REMARK   16  A    between atoms: _39  and  _42
REMARK   17  A    between atoms: _42  and  _43
REMARK   18  A    between atoms: _48  and  _50
REMARK   19  A    between atoms: _50  and  _51
REMARK   20  A    between atoms: _50  and  _53
REMARK   21  A    between atoms: _53  and  _54
REMARK   22  A    between atoms: _57  and  _59
REMARK   23  A    between atoms: _59  and  _60
REMARK   24  A    between atoms: _59  and  _62
REMARK   25  A    between atoms: _62  and  _63
REMARK   26  A    between atoms: _63  and  _98
REMARK   27  A    between atoms: _64  and  _66
REMARK   28  A    between atoms: _66  and  _67
REMARK   29  A    between atoms: _69  and  _71
REMARK   30  A    between atoms: _71  and  _72
REMARK   31  A    between atoms: _75  and  _77
REMARK   32  A    between atoms: _77  and  _78
REMARK   33  A    between atoms: _81  and  _83
REMARK   34  A    between atoms: _83  and  _84
REMARK   35  A    between atoms: _83  and  _86
REMARK   36  A    between atoms: _86  and  _87
REMARK   37  A    between atoms: _92  and  _94
REMARK   38  A    between atoms: _94  and  _95
REMARK   39  A    between atoms: _94  and  _97
REMARK   40  A    between atoms: _97  and  _98
REMARK   41  A    between atoms: _99  and  _101
REMARK   42  A    between atoms: _101  and  _102
REMARK   43  A    between atoms: _101  and  _104
REMARK   44  A    between atoms: _104  and  _105
REMARK   45  A    between atoms: _111  and  _113
REMARK   46  A    between atoms: _113  and  _114
REMARK   47  A    between atoms: _113  and  _116
REMARK   48  A    between atoms: _116  and  _117
REMARK   49  A    between atoms: _122  and  _123
REMARK   50  A    between atoms: _125  and  _127
REMARK   51  A    between atoms: _127  and  _128
REMARK   52  A    between atoms: _130  and  _132
REMARK   53  A    between atoms: _132  and  _133
REMARK   54  A    between atoms: _132  and  _135
REMARK   55  A    between atoms: _138  and  _140
REMARK   56  A    between atoms: _140  and  _141
REMARK   57  A    between atoms: _140  and  _143
REMARK   58  A    between atoms: _143  and  _144
REMARK   59  A    between atoms: _149  and  _150
REMARK   60  A    between atoms: _152  and  _154
REMARK   61  A    between atoms: _154  and  _155
REMARK   62  A    between atoms: _158  and  _160
REMARK   63  A    between atoms: _160  and  _161
REMARK   64  A    between atoms: _160  and  _163
REMARK   65  A    between atoms: _163  and  _164
REMARK   66  A    between atoms: _164  and  _165
REMARK   67  A    between atoms: _168  and  _170
REMARK   68  A    between atoms: _170  and  _171
REMARK   69  A    between atoms: _170  and  _173
REMARK   70  A    between atoms: _173  and  _174
REMARK   71  A    between atoms: _177  and  _179
REMARK   72  A    between atoms: _179  and  _180
REMARK   73  A    between atoms: _179  and  _182
REMARK   74  A    between atoms: _185  and  _187
REMARK   75  A    between atoms: _187  and  _188
REMARK   76  A    between atoms: _187  and  _190
REMARK   77  A    between atoms: _190  and  _191
REMARK   78  A    between atoms: _201  and  _203
REMARK   79  A    between atoms: _203  and  _204
REMARK   80  A    between atoms: _206  and  _208
REMARK   81  A    between atoms: _208  and  _209
REMARK   82  A    between atoms: _208  and  _211
REMARK   83  A    between atoms: _211  and  _212
REMARK   84  A    between atoms: _217  and  _218
REMARK   85  A    between atoms: _220  and  _222
REMARK   86  A    between atoms: _222  and  _223
REMARK   87  A    between atoms: _222  and  _225
REMARK   88  A    between atoms: _225  and  _226
REMARK   89  A    between atoms: _226  and  _227
REMARK   90  A    between atoms: _227  and  _228
REMARK   91  A    between atoms: _228  and  _229
REMARK   92  A    between atoms: _233  and  _235
REMARK   93  A    between atoms: _235  and  _236
REMARK   94  A    between atoms: _235  and  _238
REMARK   95  A    between atoms: _238  and  _239
REMARK   96  A    between atoms: _242  and  _244
REMARK   97  A    between atoms: _244  and  _245
REMARK   98  A    between atoms: _244  and  _247
REMARK   99  A    between atoms: _247  and  _248
REMARK  100  A    between atoms: _248  and  _249
REMARK  101  A    between atoms: _249  and  _250
REMARK  102  A    between atoms: _259  and  _261
REMARK  103  A    between atoms: _261  and  _262
REMARK  104  A    between atoms: _261  and  _264
REMARK  105  A    between atoms: _264  and  _265
REMARK  106  A    between atoms: _268  and  _270
REMARK  107  A    between atoms: _270  and  _271
REMARK  108  A    between atoms: _270  and  _273
REMARK  109  A    between atoms: _273  and  _274
REMARK  110  A    between atoms: _274  and  _275
REMARK  111  A    between atoms: _275  and  _276
REMARK  112  A    between atoms: _276  and  _277
REMARK  113  A    between atoms: _281  and  _283
REMARK  114  A    between atoms: _283  and  _284
REMARK  115  A    between atoms: _283  and  _286
REMARK  116  A    between atoms: _286  and  _287
REMARK  117  A    between atoms: _290  and  _292
REMARK  118  A    between atoms: _292  and  _293
REMARK  119  A    between atoms: _292  and  _295
REMARK  120  A    between atoms: _295  and  _296
REMARK  121  A    between atoms: _296  and  _297
REMARK  122  A    between atoms: _302  and  _304
REMARK  123  A    between atoms: _304  and  _305
REMARK  124  A    between atoms: _304  and  _307
REMARK  125  A    between atoms: _307  and  _308
REMARK  126  A    between atoms: _311  and  _313
REMARK  127  A    between atoms: _313  and  _314
REMARK  128  A    between atoms: _313  and  _316
REMARK  129  A    between atoms: _316  and  _317
REMARK  130  A    between atoms: _322  and  _323
REMARK  131  A    between atoms: _325  and  _327
REMARK  132  A    between atoms: _327  and  _328
REMARK  133  A    between atoms: _327  and  _330
REMARK  134  A    between atoms: _330  and  _331
REMARK  135  A    between atoms: _334  and  _336
REMARK  136  A    between atoms: _336  and  _337
REMARK  137  A    between atoms: _336  and  _339
REMARK  138  A    between atoms: _341  and  _343
REMARK  139  A    between atoms: _343  and  _344
REMARK  140  A    between atoms: _347  and  _349
REMARK  141  A    between atoms: _349  and  _350
REMARK  142  A    between atoms: _349  and  _352
REMARK  143  A    between atoms: _352  and  _353
REMARK  144  A    between atoms: _356  and  _358
REMARK  145  A    between atoms: _358  and  _359
REMARK  146  A    between atoms: _362  and  _364
REMARK  147  A    between atoms: _364  and  _365
REMARK  148  A    between atoms: _364  and  _367
REMARK  149  A    between atoms: _367  and  _368
REMARK  150  A    between atoms: _368  and  _482
REMARK  151  A    between atoms: _369  and  _371
REMARK  152  A    between atoms: _371  and  _372
REMARK  153  A    between atoms: _371  and  _374
REMARK  154  A    between atoms: _374  and  _375
REMARK  155  A    between atoms: _375  and  _376
REMARK  156  A    between atoms: _376  and  _377
REMARK  157  A    between atoms: _377  and  _378
REMARK  158  A    between atoms: _382  and  _384
REMARK  159  A    between atoms: _384  and  _385
REMARK  160  A    between atoms: _387  and  _389
REMARK  161  A    between atoms: _389  and  _390
REMARK  162  A    between atoms: _389  and  _392
REMARK  163  A    between atoms: _392  and  _393
REMARK  164  A    between atoms: _396  and  _398
REMARK  165  A    between atoms: _398  and  _399
REMARK  166  A    between atoms: _398  and  _401
REMARK  167  A    between atoms: _401  and  _402
REMARK  168  A    between atoms: _404  and  _406
REMARK  169  A    between atoms: _406  and  _407
REMARK  170  A    between atoms: _409  and  _411
REMARK  171  A    between atoms: _411  and  _412
REMARK  172  A    between atoms: _414  and  _416
REMARK  173  A    between atoms: _416  and  _417
REMARK  174  A    between atoms: _416  and  _419
REMARK  175  A    between atoms: _419  and  _420
REMARK  176  A    between atoms: _423  and  _425
REMARK  177  A    between atoms: _425  and  _426
REMARK  178  A    between atoms: _425  and  _428
REMARK  179  A    between atoms: _428  and  _429
REMARK  180  A    between atoms: _432  and  _434
REMARK  181  A    between atoms: _434  and  _435
REMARK  182  A    between atoms: _434  and  _437
REMARK  183  A    between atoms: _437  and  _438
REMARK  184  A    between atoms: _440  and  _442
REMARK  185  A    between atoms: _442  and  _443
REMARK  186  A    between atoms: _442  and  _445
REMARK  187  A    between atoms: _445  and  _446
REMARK  188  A    between atoms: _456  and  _458
REMARK  189  A    between atoms: _458  and  _459
REMARK  190  A    between atoms: _461  and  _463
REMARK  191  A    between atoms: _463  and  _464
REMARK  192  A    between atoms: _463  and  _466
REMARK  193  A    between atoms: _466  and  _467
REMARK  194  A    between atoms: _467  and  _468
REMARK  195  A    between atoms: _471  and  _473
REMARK  196  A    between atoms: _473  and  _474
REMARK  197  A    between atoms: _476  and  _478
REMARK  198  A    between atoms: _478  and  _479
REMARK  199  A    between atoms: _478  and  _481
REMARK  200  A    between atoms: _481  and  _482
REMARK  201  A    between atoms: _483  and  _485
REMARK  202  A    between atoms: _485  and  _486
REMARK  203  A    between atoms: _489  and  _491
REMARK  204  A    between atoms: _491  and  _492
REMARK  205  A    between atoms: _491  and  _494
REMARK  206  A    between atoms: _494  and  _495
REMARK  207  A    between atoms: _495  and  _496
REMARK  208  A    between atoms: _501  and  _503
REMARK  209  A    between atoms: _503  and  _504
REMARK  210  A    between atoms: _503  and  _506
REMARK  211  A    between atoms: _506  and  _507
REMARK  212  A    between atoms: _507  and  _508
REMARK  213  A    between atoms: _508  and  _509
REMARK  214  A    between atoms: _519  and  _520
REMARK  215  A    between atoms: _525  and  _527
REMARK  216  A    between atoms: _527  and  _528
REMARK  217  A    between atoms: _530  and  _532
REMARK  218  A    between atoms: _532  and  _533
REMARK  219  A    between atoms: _532  and  _535
REMARK  220  A    between atoms: _538  and  _540
REMARK  221  A    between atoms: _540  and  _541
REMARK  222  A    between atoms: _540  and  _543
REMARK  223  A    between atoms: _543  and  _544
REMARK  224  A    between atoms: _549  and  _550
REMARK  225  A    between atoms: _552  and  _554
REMARK  226  A    between atoms: _554  and  _555
REMARK  227  A    between atoms: _554  and  _557
REMARK  228  A    between atoms: _557  and  _558
REMARK                            x       y       z     vdW  Elec       q    Type
REMARK                         _______ _______ _______ _____ _____    ______ ____
ROOT
ATOM      1  O   HOH     1     -41.724  -6.084 -24.755  0.00  0.00    +0.000 OA
ENDROOT
TORSDOF 0
REMARK  Name = ../refined-set-2016/4crc/4crc_pocket.pdb
REMARK  228 active torsions:
REMARK  status: ('A' for Active; 'I' for Inactive)
REMARK    1  A    between atoms: _1  and  _5
REMARK    2  A    between atoms: _5  and  _6
REMARK    3  A    between atoms: _5  and  _8
REMARK    4  A    between atoms: _8  and  _9
REMARK    5  A    between atoms: _12  and  _14
REMARK    6  A    between atoms: _14  and  _15
REMARK    7  A    between atoms: _14  and  _17
REMARK    8  A    between atoms: _20  and  _22
REMARK    9  A    between atoms: _22  and  _23
REMARK   10  A    between atoms: _22  and  _25
REMARK   11  A    between atoms: _25  and  _26
REMARK   12  A    between atoms: _26  and  _27
REMARK   13  A    between atoms: _27  and  _28
REMARK   14  A    between atoms: _37  and  _39
REMARK   15  A    between atoms: _39  and  _40
REMARK   16  A    between atoms: _39  and  _42
REMARK   17  A    between atoms: _42  and  _43
REMARK   18  A    between atoms: _48  and  _50
REMARK   19  A    between atoms: _50  and  _51
REMARK   20  A    between atoms: _50  and  _53
REMARK   21  A    between atoms: _53  and  _54
REMARK   22  A    between atoms: _57  and  _59
REMARK   23  A    between atoms: _59  and  _60
REMARK   24  A    between atoms: _59  and  _62
REMARK   25  A    between atoms: _62  and  _63
REMARK   26  A    between atoms: _63  and  _98
REMARK   27  A    between atoms: _64  and  _66
REMARK   28  A    between atoms: _66  and  _67
REMARK   29  A    between atoms: _69  and  _71
REMARK   30  A    between atoms: _71  and  _72
REMARK   31  A    between atoms: _75  and  _77
REMARK   32  A    between atoms: _77  and  _78
REMARK   33  A    between atoms: _81  and  _83
REMARK   34  A    between atoms: _83  and  _84
REMARK   35  A    between atoms: _83  and  _86
REMARK   36  A    between atoms: _86  and  _87
REMARK   37  A    between atoms: _92  and  _94
REMARK   38  A    between atoms: _94  and  _95
REMARK   39  A    between atoms: _94  and  _97
REMARK   40  A    between atoms: _97  and  _98
REMARK   41  A    between atoms: _99  and  _101
REMARK   42  A    between atoms: _101  and  _102
REMARK   43  A    between atoms: _101  and  _104
REMARK   44  A    between atoms: _104  and  _105
REMARK   45  A    between atoms: _111  and  _113
REMARK   46  A    between atoms: _113  and  _114
REMARK   47  A    between atoms: _113  and  _116
REMARK   48  A    between atoms: _116  and  _117
REMARK   49  A    between atoms: _122  and  _123
REMARK   50  A    between atoms: _125  and  _127
REMARK   51  A    between atoms: _127  and  _128
REMARK   52  A    between atoms: _130  and  _132
REMARK   53  A    between atoms: _132  and  _133
REMARK   54  A    between atoms: _132  and  _135
REMARK   55  A    between atoms: _138  and  _140
REMARK   56  A    between atoms: _140  and  _141
REMARK   57  A    between atoms: _140  and  _143
REMARK   58  A    between atoms: _143  and  _144
REMARK   59  A    between atoms: _149  and  _150
REMARK   60  A    between atoms: _152  and  _154
REMARK   61  A    between atoms: _154  and  _155
REMARK   62  A    between atoms: _158  and  _160
REMARK   63  A    between atoms: _160  and  _161
REMARK   64  A    between atoms: _160  and  _163
REMARK   65  A    between atoms: _163  and  _164
REMARK   66  A    between atoms: _164  and  _165
REMARK   67  A    between atoms: _168  and  _170
REMARK   68  A    between atoms: _170  and  _171
REMARK   69  A    between atoms: _170  and  _173
REMARK   70  A    between atoms: _173  and  _174
REMARK   71  A    between atoms: _177  and  _179
REMARK   72  A    between atoms: _179  and  _180
REMARK   73  A    between atoms: _179  and  _182
REMARK   74  A    between atoms: _185  and  _187
REMARK   75  A    between atoms: _187  and  _188
REMARK   76  A    between atoms: _187  and  _190
REMARK   77  A    between atoms: _190  and  _191
REMARK   78  A    between atoms: _201  and  _203
REMARK   79  A    between atoms: _203  and  _204
REMARK   80  A    between atoms: _206  and  _208
REMARK   81  A    between atoms: _208  and  _209
REMARK   82  A    between atoms: _208  and  _211
REMARK   83  A    between atoms: _211  and  _212
REMARK   84  A    between atoms: _217  and  _218
REMARK   85  A    between atoms: _220  and  _222
REMARK   86  A    between atoms: _222  and  _223
REMARK   87  A    between atoms: _222  and  _225
REMARK   88  A    between atoms: _225  and  _226
REMARK   89  A    between atoms: _226  and  _227
REMARK   90  A    between atoms: _227  and  _228
REMARK   91  A    between atoms: _228  and  _229
REMARK   92  A    between atoms: _233  and  _235
REMARK   93  A    between atoms: _235  and  _236
REMARK   94  A    between atoms: _235  and  _238
REMARK   95  A    between atoms: _238  and  _239
REMARK   96  A    between atoms: _242  and  _244
REMARK   97  A    between atoms: _244  and  _245
REMARK   98  A    between atoms: _244  and  _247
REMARK   99  A    between atoms: _247  and  _248
REMARK  100  A    between atoms: _248  and  _249
REMARK  101  A    between atoms: _249  and  _250
REMARK  102  A    between atoms: _259  and  _261
REMARK  103  A    between atoms: _261  and  _262
REMARK  104  A    between atoms: _261  and  _264
REMARK  105  A    between atoms: _264  and  _265
REMARK  106  A    between atoms: _268  and  _270
REMARK  107  A    between atoms: _270  and  _271
REMARK  108  A    between atoms: _270  and  _273
REMARK  109  A    between atoms: _273  and  _274
REMARK  110  A    between atoms: _274  and  _275
REMARK  111  A    between atoms: _275  and  _276
REMARK  112  A    between atoms: _276  and  _277
REMARK  113  A    between atoms: _281  and  _283
REMARK  114  A    between atoms: _283  and  _284
REMARK  115  A    between atoms: _283  and  _286
REMARK  116  A    between atoms: _286  and  _287
REMARK  117  A    between atoms: _290  and  _292
REMARK  118  A    between atoms: _292  and  _293
REMARK  119  A    between atoms: _292  and  _295
REMARK  120  A    between atoms: _295  and  _296
REMARK  121  A    between atoms: _296  and  _297
REMARK  122  A    between atoms: _302  and  _304
REMARK  123  A    between atoms: _304  and  _305
REMARK  124  A    between atoms: _304  and  _307
REMARK  125  A    between atoms: _307  and  _308
REMARK  126  A    between atoms: _311  and  _313
REMARK  127  A    between atoms: _313  and  _314
REMARK  128  A    between atoms: _313  and  _316
REMARK  129  A    between atoms: _316  and  _317
REMARK  130  A    between atoms: _322  and  _323
REMARK  131  A    between atoms: _325  and  _327
REMARK  132  A    between atoms: _327  and  _328
REMARK  133  A    between atoms: _327  and  _330
REMARK  134  A    between atoms: _330  and  _331
REMARK  135  A    between atoms: _334  and  _336
REMARK  136  A    between atoms: _336  and  _337
REMARK  137  A    between atoms: _336  and  _339
REMARK  138  A    between atoms: _341  and  _343
REMARK  139  A    between atoms: _343  and  _344
REMARK  140  A    between atoms: _347  and  _349
REMARK  141  A    between atoms: _349  and  _350
REMARK  142  A    between atoms: _349  and  _352
REMARK  143  A    between atoms: _352  and  _353
REMARK  144  A    between atoms: _356  and  _358
REMARK  145  A    between atoms: _358  and  _359
REMARK  146  A    between atoms: _362  and  _364
REMARK  147  A    between atoms: _364  and  _365
REMARK  148  A    between atoms: _364  and  _367
REMARK  149  A    between atoms: _367  and  _368
REMARK  150  A    between atoms: _368  and  _482
REMARK  151  A    between atoms: _369  and  _371
REMARK  152  A    between atoms: _371  and  _372
REMARK  153  A    between atoms: _371  and  _374
REMARK  154  A    between atoms: _374  and  _375
REMARK  155  A    between atoms: _375  and  _376
REMARK  156  A    between atoms: _376  and  _377
REMARK  157  A    between atoms: _377  and  _378
REMARK  158  A    between atoms: _382  and  _384
REMARK  159  A    between atoms: _384  and  _385
REMARK  160  A    between atoms: _387  and  _389
REMARK  161  A    between atoms: _389  and  _390
REMARK  162  A    between atoms: _389  and  _392
REMARK  163  A    between atoms: _392  and  _393
REMARK  164  A    between atoms: _396  and  _398
REMARK  165  A    between atoms: _398  and  _399
REMARK  166  A    between atoms: _398  and  _401
REMARK  167  A    between atoms: _401  and  _402
REMARK  168  A    between atoms: _404  and  _406
REMARK  169  A    between atoms: _406  and  _407
REMARK  170  A    between atoms: _409  and  _411
REMARK  171  A    between atoms: _411  and  _412
REMARK  172  A    between atoms: _414  and  _416
REMARK  173  A    between atoms: _416  and  _417
REMARK  174  A    between atoms: _416  and  _419
REMARK  175  A    between atoms: _419  and  _420
REMARK  176  A    between atoms: _423  and  _425
REMARK  177  A    between atoms: _425  and  _426
REMARK  178  A    between atoms: _425  and  _428
REMARK  179  A    between atoms: _428  and  _429
REMARK  180  A    between atoms: _432  and  _434
REMARK  181  A    between atoms: _434  and  _435
REMARK  182  A    between atoms: _434  and  _437
REMARK  183  A    between atoms: _437  and  _438
REMARK  184  A    between atoms: _440  and  _442
REMARK  185  A    between atoms: _442  and  _443
REMARK  186  A    between atoms: _442  and  _445
REMARK  187  A    between atoms: _445  and  _446
REMARK  188  A    between atoms: _456  and  _458
REMARK  189  A    between atoms: _458  and  _459
REMARK  190  A    between atoms: _461  and  _463
REMARK  191  A    between atoms: _463  and  _464
REMARK  192  A    between atoms: _463  and  _466
REMARK  193  A    between atoms: _466  and  _467
REMARK  194  A    between atoms: _467  and  _468
REMARK  195  A    between atoms: _471  and  _473
REMARK  196  A    between atoms: _473  and  _474
REMARK  197  A    between atoms: _476  and  _478
REMARK  198  A    between atoms: _478  and  _479
REMARK  199  A    between atoms: _478  and  _481
REMARK  200  A    between atoms: _481  and  _482
REMARK  201  A    between atoms: _483  and  _485
REMARK  202  A    between atoms: _485  and  _486
REMARK  203  A    between atoms: _489  and  _491
REMARK  204  A    between atoms: _491  and  _492
REMARK  205  A    between atoms: _491  and  _494
REMARK  206  A    between atoms: _494  and  _495
REMARK  207  A    between atoms: _495  and  _496
REMARK  208  A    between atoms: _501  and  _503
REMARK  209  A    between atoms: _503  and  _504
REMARK  210  A    between atoms: _503  and  _506
REMARK  211  A    between atoms: _506  and  _507
REMARK  212  A    between atoms: _507  and  _508
REMARK  213  A    between atoms: _508  and  _509
REMARK  214  A    between atoms: _519  and  _520
REMARK  215  A    between atoms: _525  and  _527
REMARK  216  A    between atoms: _527  and  _528
REMARK  217  A    between atoms: _530  and  _532
REMARK  218  A    between atoms: _532  and  _533
REMARK  219  A    between atoms: _532  and  _535
REMARK  220  A    between atoms: _538  and  _540
REMARK  221  A    between atoms: _540  and  _541
REMARK  222  A    between atoms: _540  and  _543
REMARK  223  A    between atoms: _543  and  _544
REMARK  224  A    between atoms: _549  and  _550
REMARK  225  A    between atoms: _552  and  _554
REMARK  226  A    between atoms: _554  and  _555
REMARK  227  A    between atoms: _554  and  _557
REMARK  228  A    between atoms: _557  and  _558
REMARK                            x       y       z     vdW  Elec       q    Type
REMARK                         _______ _______ _______ _____ _____    ______ ____
ROOT
ATOM      1  O   HOH     1     -58.672  -7.066 -22.557  0.00  0.00    +0.000 OA
ENDROOT
TORSDOF 0
REMARK  Name = ../refined-set-2016/4crc/4crc_pocket.pdb
REMARK  228 active torsions:
REMARK  status: ('A' for Active; 'I' for Inactive)
REMARK    1  A    between atoms: _1  and  _5
REMARK    2  A    between atoms: _5  and  _6
REMARK    3  A    between atoms: _5  and  _8
REMARK    4  A    between atoms: _8  and  _9
REMARK    5  A    between atoms: _12  and  _14
REMARK    6  A    between atoms: _14  and  _15
REMARK    7  A    between atoms: _14  and  _17
REMARK    8  A    between atoms: _20  and  _22
REMARK    9  A    between atoms: _22  and  _23
REMARK   10  A    between atoms: _22  and  _25
REMARK   11  A    between atoms: _25  and  _26
REMARK   12  A    between atoms: _26  and  _27
REMARK   13  A    between atoms: _27  and  _28
REMARK   14  A    between atoms: _37  and  _39
REMARK   15  A    between atoms: _39  and  _40
REMARK   16  A    between atoms: _39  and  _42
REMARK   17  A    between atoms: _42  and  _43
REMARK   18  A    between atoms: _48  and  _50
REMARK   19  A    between atoms: _50  and  _51
REMARK   20  A    between atoms: _50  and  _53
REMARK   21  A    between atoms: _53  and  _54
REMARK   22  A    between atoms: _57  and  _59
REMARK   23  A    between atoms: _59  and  _60
REMARK   24  A    between atoms: _59  and  _62
REMARK   25  A    between atoms: _62  and  _63
REMARK   26  A    between atoms: _63  and  _98
REMARK   27  A    between atoms: _64  and  _66
REMARK   28  A    between atoms: _66  and  _67
REMARK   29  A    between atoms: _69  and  _71
REMARK   30  A    between atoms: _71  and  _72
REMARK   31  A    between atoms: _75  and  _77
REMARK   32  A    between atoms: _77  and  _78
REMARK   33  A    between atoms: _81  and  _83
REMARK   34  A    between atoms: _83  and  _84
REMARK   35  A    between atoms: _83  and  _86
REMARK   36  A    between atoms: _86  and  _87
REMARK   37  A    between atoms: _92  and  _94
REMARK   38  A    between atoms: _94  and  _95
REMARK   39  A    between atoms: _94  and  _97
REMARK   40  A    between atoms: _97  and  _98
REMARK   41  A    between atoms: _99  and  _101
REMARK   42  A    between atoms: _101  and  _102
REMARK   43  A    between atoms: _101  and  _104
REMARK   44  A    between atoms: _104  and  _105
REMARK   45  A    between atoms: _111  and  _113
REMARK   46  A    between atoms: _113  and  _114
REMARK   47  A    between atoms: _113  and  _116
REMARK   48  A    between atoms: _116  and  _117
REMARK   49  A    between atoms: _122  and  _123
REMARK   50  A    between atoms: _125  and  _127
REMARK   51  A    between atoms: _127  and  _128
REMARK   52  A    between atoms: _130  and  _132
REMARK   53  A    between atoms: _132  and  _133
REMARK   54  A    between atoms: _132  and  _135
REMARK   55  A    between atoms: _138  and  _140
REMARK   56  A    between atoms: _140  and  _141
REMARK   57  A    between atoms: _140  and  _143
REMARK   58  A    between atoms: _143  and  _144
REMARK   59  A    between atoms: _149  and  _150
REMARK   60  A    between atoms: _152  and  _154
REMARK   61  A    between atoms: _154  and  _155
REMARK   62  A    between atoms: _158  and  _160
REMARK   63  A    between atoms: _160  and  _161
REMARK   64  A    between atoms: _160  and  _163
REMARK   65  A    between atoms: _163  and  _164
REMARK   66  A    between atoms: _164  and  _165
REMARK   67  A    between atoms: _168  and  _170
REMARK   68  A    between atoms: _170  and  _171
REMARK   69  A    between atoms: _170  and  _173
REMARK   70  A    between atoms: _173  and  _174
REMARK   71  A    between atoms: _177  and  _179
REMARK   72  A    between atoms: _179  and  _180
REMARK   73  A    between atoms: _179  and  _182
REMARK   74  A    between atoms: _185  and  _187
REMARK   75  A    between atoms: _187  and  _188
REMARK   76  A    between atoms: _187  and  _190
REMARK   77  A    between atoms: _190  and  _191
REMARK   78  A    between atoms: _201  and  _203
REMARK   79  A    between atoms: _203  and  _204
REMARK   80  A    between atoms: _206  and  _208
REMARK   81  A    between atoms: _208  and  _209
REMARK   82  A    between atoms: _208  and  _211
REMARK   83  A    between atoms: _211  and  _212
REMARK   84  A    between atoms: _217  and  _218
REMARK   85  A    between atoms: _220  and  _222
REMARK   86  A    between atoms: _222  and  _223
REMARK   87  A    between atoms: _222  and  _225
REMARK   88  A    between atoms: _225  and  _226
REMARK   89  A    between atoms: _226  and  _227
REMARK   90  A    between atoms: _227  and  _228
REMARK   91  A    between atoms: _228  and  _229
REMARK   92  A    between atoms: _233  and  _235
REMARK   93  A    between atoms: _235  and  _236
REMARK   94  A    between atoms: _235  and  _238
REMARK   95  A    between atoms: _238  and  _239
REMARK   96  A    between atoms: _242  and  _244
REMARK   97  A    between atoms: _244  and  _245
REMARK   98  A    between atoms: _244  and  _247
REMARK   99  A    between atoms: _247  and  _248
REMARK  100  A    between atoms: _248  and  _249
REMARK  101  A    between atoms: _249  and  _250
REMARK  102  A    between atoms: _259  and  _261
REMARK  103  A    between atoms: _261  and  _262
REMARK  104  A    between atoms: _261  and  _264
REMARK  105  A    between atoms: _264  and  _265
REMARK  106  A    between atoms: _268  and  _270
REMARK  107  A    between atoms: _270  and  _271
REMARK  108  A    between atoms: _270  and  _273
REMARK  109  A    between atoms: _273  and  _274
REMARK  110  A    between atoms: _274  and  _275
REMARK  111  A    between atoms: _275  and  _276
REMARK  112  A    between atoms: _276  and  _277
REMARK  113  A    between atoms: _281  and  _283
REMARK  114  A    between atoms: _283  and  _284
REMARK  115  A    between atoms: _283  and  _286
REMARK  116  A    between atoms: _286  and  _287
REMARK  117  A    between atoms: _290  and  _292
REMARK  118  A    between atoms: _292  and  _293
REMARK  119  A    between atoms: _292  and  _295
REMARK  120  A    between atoms: _295  and  _296
REMARK  121  A    between atoms: _296  and  _297
REMARK  122  A    between atoms: _302  and  _304
REMARK  123  A    between atoms: _304  and  _305
REMARK  124  A    between atoms: _304  and  _307
REMARK  125  A    between atoms: _307  and  _308
REMARK  126  A    between atoms: _311  and  _313
REMARK  127  A    between atoms: _313  and  _314
REMARK  128  A    between atoms: _313  and  _316
REMARK  129  A    between atoms: _316  and  _317
REMARK  130  A    between atoms: _322  and  _323
REMARK  131  A    between atoms: _325  and  _327
REMARK  132  A    between atoms: _327  and  _328
REMARK  133  A    between atoms: _327  and  _330
REMARK  134  A    between atoms: _330  and  _331
REMARK  135  A    between atoms: _334  and  _336
REMARK  136  A    between atoms: _336  and  _337
REMARK  137  A    between atoms: _336  and  _339
REMARK  138  A    between atoms: _341  and  _343
REMARK  139  A    between atoms: _343  and  _344
REMARK  140  A    between atoms: _347  and  _349
REMARK  141  A    between atoms: _349  and  _350
REMARK  142  A    between atoms: _349  and  _352
REMARK  143  A    between atoms: _352  and  _353
REMARK  144  A    between atoms: _356  and  _358
REMARK  145  A    between atoms: _358  and  _359
REMARK  146  A    between atoms: _362  and  _364
REMARK  147  A    between atoms: _364  and  _365
REMARK  148  A    between atoms: _364  and  _367
REMARK  149  A    between atoms: _367  and  _368
REMARK  150  A    between atoms: _368  and  _482
REMARK  151  A    between atoms: _369  and  _371
REMARK  152  A    between atoms: _371  and  _372
REMARK  153  A    between atoms: _371  and  _374
REMARK  154  A    between atoms: _374  and  _375
REMARK  155  A    between atoms: _375  and  _376
REMARK  156  A    between atoms: _376  and  _377
REMARK  157  A    between atoms: _377  and  _378
REMARK  158  A    between atoms: _382  and  _384
REMARK  159  A    between atoms: _384  and  _385
REMARK  160  A    between atoms: _387  and  _389
REMARK  161  A    between atoms: _389  and  _390
REMARK  162  A    between atoms: _389  and  _392
REMARK  163  A    between atoms: _392  and  _393
REMARK  164  A    between atoms: _396  and  _398
REMARK  165  A    between atoms: _398  and  _399
REMARK  166  A    between atoms: _398  and  _401
REMARK  167  A    between atoms: _401  and  _402
REMARK  168  A    between atoms: _404  and  _406
REMARK  169  A    between atoms: _406  and  _407
REMARK  170  A    between atoms: _409  and  _411
REMARK  171  A    between atoms: _411  and  _412
REMARK  172  A    between atoms: _414  and  _416
REMARK  173  A    between atoms: _416  and  _417
REMARK  174  A    between atoms: _416  and  _419
REMARK  175  A    between atoms: _419  and  _420
REMARK  176  A    between atoms: _423  and  _425
REMARK  177  A    between atoms: _425  and  _426
REMARK  178  A    between atoms: _425  and  _428
REMARK  179  A    between atoms: _428  and  _429
REMARK  180  A    between atoms: _432  and  _434
REMARK  181  A    between atoms: _434  and  _435
REMARK  182  A    between atoms: _434  and  _437
REMARK  183  A    between atoms: _437  and  _438
REMARK  184  A    between atoms: _440  and  _442
REMARK  185  A    between atoms: _442  and  _443
REMARK  186  A    between atoms: _442  and  _445
REMARK  187  A    between atoms: _445  and  _446
REMARK  188  A    between atoms: _456  and  _458
REMARK  189  A    between atoms: _458  and  _459
REMARK  190  A    between atoms: _461  and  _463
REMARK  191  A    between atoms: _463  and  _464
REMARK  192  A    between atoms: _463  and  _466
REMARK  193  A    between atoms: _466  and  _467
REMARK  194  A    between atoms: _467  and  _468
REMARK  195  A    between atoms: _471  and  _473
REMARK  196  A    between atoms: _473  and  _474
REMARK  197  A    between atoms: _476  and  _478
REMARK  198  A    between atoms: _478  and  _479
REMARK  199  A    between atoms: _478  and  _481
REMARK  200  A    between atoms: _481  and  _482
REMARK  201  A    between atoms: _483  and  _485
REMARK  202  A    between atoms: _485  and  _486
REMARK  203  A    between atoms: _489  and  _491
REMARK  204  A    between atoms: _491  and  _492
REMARK  205  A    between atoms: _491  and  _494
REMARK  206  A    between atoms: _494  and  _495
REMARK  207  A    between atoms: _495  and  _496
REMARK  208  A    between atoms: _501  and  _503
REMARK  209  A    between atoms: _503  and  _504
REMARK  210  A    between atoms: _503  and  _506
REMARK  211  A    between atoms: _506  and  _507
REMARK  212  A    between atoms: _507  and  _508
REMARK  213  A    between atoms: _508  and  _509
REMARK  214  A    between atoms: _519  and  _520
REMARK  215  A    between atoms: _525  and  _527
REMARK  216  A    between atoms: _527  and  _528
REMARK  217  A    between atoms: _530  and  _532
REMARK  218  A    between atoms: _532  and  _533
REMARK  219  A    between atoms: _532  and  _535
REMARK  220  A    between atoms: _538  and  _540
REMARK  221  A    between atoms: _540  and  _541
REMARK  222  A    between atoms: _540  and  _543
REMARK  223  A    between atoms: _543  and  _544
REMARK  224  A    between atoms: _549  and  _550
REMARK  225  A    between atoms: _552  and  _554
REMARK  226  A    between atoms: _554  and  _555
REMARK  227  A    between atoms: _554  and  _557
REMARK  228  A    between atoms: _557  and  _558
REMARK                            x       y       z     vdW  Elec       q    Type
REMARK                         _______ _______ _______ _____ _____    ______ ____
ROOT
ATOM      1  O   HOH     1     -57.921  -7.035 -18.286  0.00  0.00    +0.000 OA
ENDROOT
TORSDOF 0
REMARK  Name = ../refined-set-2016/4crc/4crc_pocket.pdb
REMARK  228 active torsions:
REMARK  status: ('A' for Active; 'I' for Inactive)
REMARK    1  A    between atoms: _1  and  _5
REMARK    2  A    between atoms: _5  and  _6
REMARK    3  A    between atoms: _5  and  _8
REMARK    4  A    between atoms: _8  and  _9
REMARK    5  A    between atoms: _12  and  _14
REMARK    6  A    between atoms: _14  and  _15
REMARK    7  A    between atoms: _14  and  _17
REMARK    8  A    between atoms: _20  and  _22
REMARK    9  A    between atoms: _22  and  _23
REMARK   10  A    between atoms: _22  and  _25
REMARK   11  A    between atoms: _25  and  _26
REMARK   12  A    between atoms: _26  and  _27
REMARK   13  A    between atoms: _27  and  _28
REMARK   14  A    between atoms: _37  and  _39
REMARK   15  A    between atoms: _39  and  _40
REMARK   16  A    between atoms: _39  and  _42
REMARK   17  A    between atoms: _42  and  _43
REMARK   18  A    between atoms: _48  and  _50
REMARK   19  A    between atoms: _50  and  _51
REMARK   20  A    between atoms: _50  and  _53
REMARK   21  A    between atoms: _53  and  _54
REMARK   22  A    between atoms: _57  and  _59
REMARK   23  A    between atoms: _59  and  _60
REMARK   24  A    between atoms: _59  and  _62
REMARK   25  A    between atoms: _62  and  _63
REMARK   26  A    between atoms: _63  and  _98
REMARK   27  A    between atoms: _64  and  _66
REMARK   28  A    between atoms: _66  and  _67
REMARK   29  A    between atoms: _69  and  _71
REMARK   30  A    between atoms: _71  and  _72
REMARK   31  A    between atoms: _75  and  _77
REMARK   32  A    between atoms: _77  and  _78
REMARK   33  A    between atoms: _81  and  _83
REMARK   34  A    between atoms: _83  and  _84
REMARK   35  A    between atoms: _83  and  _86
REMARK   36  A    between atoms: _86  and  _87
REMARK   37  A    between atoms: _92  and  _94
REMARK   38  A    between atoms: _94  and  _95
REMARK   39  A    between atoms: _94  and  _97
REMARK   40  A    between atoms: _97  and  _98
REMARK   41  A    between atoms: _99  and  _101
REMARK   42  A    between atoms: _101  and  _102
REMARK   43  A    between atoms: _101  and  _104
REMARK   44  A    between atoms: _104  and  _105
REMARK   45  A    between atoms: _111  and  _113
REMARK   46  A    between atoms: _113  and  _114
REMARK   47  A    between atoms: _113  and  _116
REMARK   48  A    between atoms: _116  and  _117
REMARK   49  A    between atoms: _122  and  _123
REMARK   50  A    between atoms: _125  and  _127
REMARK   51  A    between atoms: _127  and  _128
REMARK   52  A    between atoms: _130  and  _132
REMARK   53  A    between atoms: _132  and  _133
REMARK   54  A    between atoms: _132  and  _135
REMARK   55  A    between atoms: _138  and  _140
REMARK   56  A    between atoms: _140  and  _141
REMARK   57  A    between atoms: _140  and  _143
REMARK   58  A    between atoms: _143  and  _144
REMARK   59  A    between atoms: _149  and  _150
REMARK   60  A    between atoms: _152  and  _154
REMARK   61  A    between atoms: _154  and  _155
REMARK   62  A    between atoms: _158  and  _160
REMARK   63  A    between atoms: _160  and  _161
REMARK   64  A    between atoms: _160  and  _163
REMARK   65  A    between atoms: _163  and  _164
REMARK   66  A    between atoms: _164  and  _165
REMARK   67  A    between atoms: _168  and  _170
REMARK   68  A    between atoms: _170  and  _171
REMARK   69  A    between atoms: _170  and  _173
REMARK   70  A    between atoms: _173  and  _174
REMARK   71  A    between atoms: _177  and  _179
REMARK   72  A    between atoms: _179  and  _180
REMARK   73  A    between atoms: _179  and  _182
REMARK   74  A    between atoms: _185  and  _187
REMARK   75  A    between atoms: _187  and  _188
REMARK   76  A    between atoms: _187  and  _190
REMARK   77  A    between atoms: _190  and  _191
REMARK   78  A    between atoms: _201  and  _203
REMARK   79  A    between atoms: _203  and  _204
REMARK   80  A    between atoms: _206  and  _208
REMARK   81  A    between atoms: _208  and  _209
REMARK   82  A    between atoms: _208  and  _211
REMARK   83  A    between atoms: _211  and  _212
REMARK   84  A    between atoms: _217  and  _218
REMARK   85  A    between atoms: _220  and  _222
REMARK   86  A    between atoms: _222  and  _223
REMARK   87  A    between atoms: _222  and  _225
REMARK   88  A    between atoms: _225  and  _226
REMARK   89  A    between atoms: _226  and  _227
REMARK   90  A    between atoms: _227  and  _228
REMARK   91  A    between atoms: _228  and  _229
REMARK   92  A    between atoms: _233  and  _235
REMARK   93  A    between atoms: _235  and  _236
REMARK   94  A    between atoms: _235  and  _238
REMARK   95  A    between atoms: _238  and  _239
REMARK   96  A    between atoms: _242  and  _244
REMARK   97  A    between atoms: _244  and  _245
REMARK   98  A    between atoms: _244  and  _247
REMARK   99  A    between atoms: _247  and  _248
REMARK  100  A    between atoms: _248  and  _249
REMARK  101  A    between atoms: _249  and  _250
REMARK  102  A    between atoms: _259  and  _261
REMARK  103  A    between atoms: _261  and  _262
REMARK  104  A    between atoms: _261  and  _264
REMARK  105  A    between atoms: _264  and  _265
REMARK  106  A    between atoms: _268  and  _270
REMARK  107  A    between atoms: _270  and  _271
REMARK  108  A    between atoms: _270  and  _273
REMARK  109  A    between atoms: _273  and  _274
REMARK  110  A    between atoms: _274  and  _275
REMARK  111  A    between atoms: _275  and  _276
REMARK  112  A    between atoms: _276  and  _277
REMARK  113  A    between atoms: _281  and  _283
REMARK  114  A    between atoms: _283  and  _284
REMARK  115  A    between atoms: _283  and  _286
REMARK  116  A    between atoms: _286  and  _287
REMARK  117  A    between atoms: _290  and  _292
REMARK  118  A    between atoms: _292  and  _293
REMARK  119  A    between atoms: _292  and  _295
REMARK  120  A    between atoms: _295  and  _296
REMARK  121  A    between atoms: _296  and  _297
REMARK  122  A    between atoms: _302  and  _304
REMARK  123  A    between atoms: _304  and  _305
REMARK  124  A    between atoms: _304  and  _307
REMARK  125  A    between atoms: _307  and  _308
REMARK  126  A    between atoms: _311  and  _313
REMARK  127  A    between atoms: _313  and  _314
REMARK  128  A    between atoms: _313  and  _316
REMARK  129  A    between atoms: _316  and  _317
REMARK  130  A    between atoms: _322  and  _323
REMARK  131  A    between atoms: _325  and  _327
REMARK  132  A    between atoms: _327  and  _328
REMARK  133  A    between atoms: _327  and  _330
REMARK  134  A    between atoms: _330  and  _331
REMARK  135  A    between atoms: _334  and  _336
REMARK  136  A    between atoms: _336  and  _337
REMARK  137  A    between atoms: _336  and  _339
REMARK  138  A    between atoms: _341  and  _343
REMARK  139  A    between atoms: _343  and  _344
REMARK  140  A    between atoms: _347  and  _349
REMARK  141  A    between atoms: _349  and  _350
REMARK  142  A    between atoms: _349  and  _352
REMARK  143  A    between atoms: _352  and  _353
REMARK  144  A    between atoms: _356  and  _358
REMARK  145  A    between atoms: _358  and  _359
REMARK  146  A    between atoms: _362  and  _364
REMARK  147  A    between atoms: _364  and  _365
REMARK  148  A    between atoms: _364  and  _367
REMARK  149  A    between atoms: _367  and  _368
REMARK  150  A    between atoms: _368  and  _482
REMARK  151  A    between atoms: _369  and  _371
REMARK  152  A    between atoms: _371  and  _372
REMARK  153  A    between atoms: _371  and  _374
REMARK  154  A    between atoms: _374  and  _375
REMARK  155  A    between atoms: _375  and  _376
REMARK  156  A    between atoms: _376  and  _377
REMARK  157  A    between atoms: _377  and  _378
REMARK  158  A    between atoms: _382  and  _384
REMARK  159  A    between atoms: _384  and  _385
REMARK  160  A    between atoms: _387  and  _389
REMARK  161  A    between atoms: _389  and  _390
REMARK  162  A    between atoms: _389  and  _392
REMARK  163  A    between atoms: _392  and  _393
REMARK  164  A    between atoms: _396  and  _398
REMARK  165  A    between atoms: _398  and  _399
REMARK  166  A    between atoms: _398  and  _401
REMARK  167  A    between atoms: _401  and  _402
REMARK  168  A    between atoms: _404  and  _406
REMARK  169  A    between atoms: _406  and  _407
REMARK  170  A    between atoms: _409  and  _411
REMARK  171  A    between atoms: _411  and  _412
REMARK  172  A    between atoms: _414  and  _416
REMARK  173  A    between atoms: _416  and  _417
REMARK  174  A    between atoms: _416  and  _419
REMARK  175  A    between atoms: _419  and  _420
REMARK  176  A    between atoms: _423  and  _425
REMARK  177  A    between atoms: _425  and  _426
REMARK  178  A    between atoms: _425  and  _428
REMARK  179  A    between atoms: _428  and  _429
REMARK  180  A    between atoms: _432  and  _434
REMARK  181  A    between atoms: _434  and  _435
REMARK  182  A    between atoms: _434  and  _437
REMARK  183  A    between atoms: _437  and  _438
REMARK  184  A    between atoms: _440  and  _442
REMARK  185  A    between atoms: _442  and  _443
REMARK  186  A    between atoms: _442  and  _445
REMARK  187  A    between atoms: _445  and  _446
REMARK  188  A    between atoms: _456  and  _458
REMARK  189  A    between atoms: _458  and  _459
REMARK  190  A    between atoms: _461  and  _463
REMARK  191  A    between atoms: _463  and  _464
REMARK  192  A    between atoms: _463  and  _466
REMARK  193  A    between atoms: _466  and  _467
REMARK  194  A    between atoms: _467  and  _468
REMARK  195  A    between atoms: _471  and  _473
REMARK  196  A    between atoms: _473  and  _474
REMARK  197  A    between atoms: _476  and  _478
REMARK  198  A    between atoms: _478  and  _479
REMARK  199  A    between atoms: _478  and  _481
REMARK  200  A    between atoms: _481  and  _482
REMARK  201  A    between atoms: _483  and  _485
REMARK  202  A    between atoms: _485  and  _486
REMARK  203  A    between atoms: _489  and  _491
REMARK  204  A    between atoms: _491  and  _492
REMARK  205  A    between atoms: _491  and  _494
REMARK  206  A    between atoms: _494  and  _495
REMARK  207  A    between atoms: _495  and  _496
REMARK  208  A    between atoms: _501  and  _503
REMARK  209  A    between atoms: _503  and  _504
REMARK  210  A    between atoms: _503  and  _506
REMARK  211  A    between atoms: _506  and  _507
REMARK  212  A    between atoms: _507  and  _508
REMARK  213  A    between atoms: _508  and  _509
REMARK  214  A    between atoms: _519  and  _520
REMARK  215  A    between atoms: _525  and  _527
REMARK  216  A    between atoms: _527  and  _528
REMARK  217  A    between atoms: _530  and  _532
REMARK  218  A    between atoms: _532  and  _533
REMARK  219  A    between atoms: _532  and  _535
REMARK  220  A    between atoms: _538  and  _540
REMARK  221  A    between atoms: _540  and  _541
REMARK  222  A    between atoms: _540  and  _543
REMARK  223  A    between atoms: _543  and  _544
REMARK  224  A    between atoms: _549  and  _550
REMARK  225  A    between atoms: _552  and  _554
REMARK  226  A    between atoms: _554  and  _555
REMARK  227  A    between atoms: _554  and  _557
REMARK  228  A    between atoms: _557  and  _558
REMARK                            x       y       z     vdW  Elec       q    Type
REMARK                         _______ _______ _______ _____ _____    ______ ____
ROOT
ATOM      1  O   HOH     1     -59.675  -3.320 -20.224  0.00  0.00    +0.000 OA
ENDROOT
TORSDOF 0
REMARK  Name = ../refined-set-2016/4crc/4crc_pocket.pdb
REMARK  228 active torsions:
REMARK  status: ('A' for Active; 'I' for Inactive)
REMARK    1  A    between atoms: _1  and  _5
REMARK    2  A    between atoms: _5  and  _6
REMARK    3  A    between atoms: _5  and  _8
REMARK    4  A    between atoms: _8  and  _9
REMARK    5  A    between atoms: _12  and  _14
REMARK    6  A    between atoms: _14  and  _15
REMARK    7  A    between atoms: _14  and  _17
REMARK    8  A    between atoms: _20  and  _22
REMARK    9  A    between atoms: _22  and  _23
REMARK   10  A    between atoms: _22  and  _25
REMARK   11  A    between atoms: _25  and  _26
REMARK   12  A    between atoms: _26  and  _27
REMARK   13  A    between atoms: _27  and  _28
REMARK   14  A    between atoms: _37  and  _39
REMARK   15  A    between atoms: _39  and  _40
REMARK   16  A    between atoms: _39  and  _42
REMARK   17  A    between atoms: _42  and  _43
REMARK   18  A    between atoms: _48  and  _50
REMARK   19  A    between atoms: _50  and  _51
REMARK   20  A    between atoms: _50  and  _53
REMARK   21  A    between atoms: _53  and  _54
REMARK   22  A    between atoms: _57  and  _59
REMARK   23  A    between atoms: _59  and  _60
REMARK   24  A    between atoms: _59  and  _62
REMARK   25  A    between atoms: _62  and  _63
REMARK   26  A    between atoms: _63  and  _98
REMARK   27  A    between atoms: _64  and  _66
REMARK   28  A    between atoms: _66  and  _67
REMARK   29  A    between atoms: _69  and  _71
REMARK   30  A    between atoms: _71  and  _72
REMARK   31  A    between atoms: _75  and  _77
REMARK   32  A    between atoms: _77  and  _78
REMARK   33  A    between atoms: _81  and  _83
REMARK   34  A    between atoms: _83  and  _84
REMARK   35  A    between atoms: _83  and  _86
REMARK   36  A    between atoms: _86  and  _87
REMARK   37  A    between atoms: _92  and  _94
REMARK   38  A    between atoms: _94  and  _95
REMARK   39  A    between atoms: _94  and  _97
REMARK   40  A    between atoms: _97  and  _98
REMARK   41  A    between atoms: _99  and  _101
REMARK   42  A    between atoms: _101  and  _102
REMARK   43  A    between atoms: _101  and  _104
REMARK   44  A    between atoms: _104  and  _105
REMARK   45  A    between atoms: _111  and  _113
REMARK   46  A    between atoms: _113  and  _114
REMARK   47  A    between atoms: _113  and  _116
REMARK   48  A    between atoms: _116  and  _117
REMARK   49  A    between atoms: _122  and  _123
REMARK   50  A    between atoms: _125  and  _127
REMARK   51  A    between atoms: _127  and  _128
REMARK   52  A    between atoms: _130  and  _132
REMARK   53  A    between atoms: _132  and  _133
REMARK   54  A    between atoms: _132  and  _135
REMARK   55  A    between atoms: _138  and  _140
REMARK   56  A    between atoms: _140  and  _141
REMARK   57  A    between atoms: _140  and  _143
REMARK   58  A    between atoms: _143  and  _144
REMARK   59  A    between atoms: _149  and  _150
REMARK   60  A    between atoms: _152  and  _154
REMARK   61  A    between atoms: _154  and  _155
REMARK   62  A    between atoms: _158  and  _160
REMARK   63  A    between atoms: _160  and  _161
REMARK   64  A    between atoms: _160  and  _163
REMARK   65  A    between atoms: _163  and  _164
REMARK   66  A    between atoms: _164  and  _165
REMARK   67  A    between atoms: _168  and  _170
REMARK   68  A    between atoms: _170  and  _171
REMARK   69  A    between atoms: _170  and  _173
REMARK   70  A    between atoms: _173  and  _174
REMARK   71  A    between atoms: _177  and  _179
REMARK   72  A    between atoms: _179  and  _180
REMARK   73  A    between atoms: _179  and  _182
REMARK   74  A    between atoms: _185  and  _187
REMARK   75  A    between atoms: _187  and  _188
REMARK   76  A    between atoms: _187  and  _190
REMARK   77  A    between atoms: _190  and  _191
REMARK   78  A    between atoms: _201  and  _203
REMARK   79  A    between atoms: _203  and  _204
REMARK   80  A    between atoms: _206  and  _208
REMARK   81  A    between atoms: _208  and  _209
REMARK   82  A    between atoms: _208  and  _211
REMARK   83  A    between atoms: _211  and  _212
REMARK   84  A    between atoms: _217  and  _218
REMARK   85  A    between atoms: _220  and  _222
REMARK   86  A    between atoms: _222  and  _223
REMARK   87  A    between atoms: _222  and  _225
REMARK   88  A    between atoms: _225  and  _226
REMARK   89  A    between atoms: _226  and  _227
REMARK   90  A    between atoms: _227  and  _228
REMARK   91  A    between atoms: _228  and  _229
REMARK   92  A    between atoms: _233  and  _235
REMARK   93  A    between atoms: _235  and  _236
REMARK   94  A    between atoms: _235  and  _238
REMARK   95  A    between atoms: _238  and  _239
REMARK   96  A    between atoms: _242  and  _244
REMARK   97  A    between atoms: _244  and  _245
REMARK   98  A    between atoms: _244  and  _247
REMARK   99  A    between atoms: _247  and  _248
REMARK  100  A    between atoms: _248  and  _249
REMARK  101  A    between atoms: _249  and  _250
REMARK  102  A    between atoms: _259  and  _261
REMARK  103  A    between atoms: _261  and  _262
REMARK  104  A    between atoms: _261  and  _264
REMARK  105  A    between atoms: _264  and  _265
REMARK  106  A    between atoms: _268  and  _270
REMARK  107  A    between atoms: _270  and  _271
REMARK  108  A    between atoms: _270  and  _273
REMARK  109  A    between atoms: _273  and  _274
REMARK  110  A    between atoms: _274  and  _275
REMARK  111  A    between atoms: _275  and  _276
REMARK  112  A    between atoms: _276  and  _277
REMARK  113  A    between atoms: _281  and  _283
REMARK  114  A    between atoms: _283  and  _284
REMARK  115  A    between atoms: _283  and  _286
REMARK  116  A    between atoms: _286  and  _287
REMARK  117  A    between atoms: _290  and  _292
REMARK  118  A    between atoms: _292  and  _293
REMARK  119  A    between atoms: _292  and  _295
REMARK  120  A    between atoms: _295  and  _296
REMARK  121  A    between atoms: _296  and  _297
REMARK  122  A    between atoms: _302  and  _304
REMARK  123  A    between atoms: _304  and  _305
REMARK  124  A    between atoms: _304  and  _307
REMARK  125  A    between atoms: _307  and  _308
REMARK  126  A    between atoms: _311  and  _313
REMARK  127  A    between atoms: _313  and  _314
REMARK  128  A    between atoms: _313  and  _316
REMARK  129  A    between atoms: _316  and  _317
REMARK  130  A    between atoms: _322  and  _323
REMARK  131  A    between atoms: _325  and  _327
REMARK  132  A    between atoms: _327  and  _328
REMARK  133  A    between atoms: _327  and  _330
REMARK  134  A    between atoms: _330  and  _331
REMARK  135  A    between atoms: _334  and  _336
REMARK  136  A    between atoms: _336  and  _337
REMARK  137  A    between atoms: _336  and  _339
REMARK  138  A    between atoms: _341  and  _343
REMARK  139  A    between atoms: _343  and  _344
REMARK  140  A    between atoms: _347  and  _349
REMARK  141  A    between atoms: _349  and  _350
REMARK  142  A    between atoms: _349  and  _352
REMARK  143  A    between atoms: _352  and  _353
REMARK  144  A    between atoms: _356  and  _358
REMARK  145  A    between atoms: _358  and  _359
REMARK  146  A    between atoms: _362  and  _364
REMARK  147  A    between atoms: _364  and  _365
REMARK  148  A    between atoms: _364  and  _367
REMARK  149  A    between atoms: _367  and  _368
REMARK  150  A    between atoms: _368  and  _482
REMARK  151  A    between atoms: _369  and  _371
REMARK  152  A    between atoms: _371  and  _372
REMARK  153  A    between atoms: _371  and  _374
REMARK  154  A    between atoms: _374  and  _375
REMARK  155  A    between atoms: _375  and  _376
REMARK  156  A    between atoms: _376  and  _377
REMARK  157  A    between atoms: _377  and  _378
REMARK  158  A    between atoms: _382  and  _384
REMARK  159  A    between atoms: _384  and  _385
REMARK  160  A    between atoms: _387  and  _389
REMARK  161  A    between atoms: _389  and  _390
REMARK  162  A    between atoms: _389  and  _392
REMARK  163  A    between atoms: _392  and  _393
REMARK  164  A    between atoms: _396  and  _398
REMARK  165  A    between atoms: _398  and  _399
REMARK  166  A    between atoms: _398  and  _401
REMARK  167  A    between atoms: _401  and  _402
REMARK  168  A    between atoms: _404  and  _406
REMARK  169  A    between atoms: _406  and  _407
REMARK  170  A    between atoms: _409  and  _411
REMARK  171  A    between atoms: _411  and  _412
REMARK  172  A    between atoms: _414  and  _416
REMARK  173  A    between atoms: _416  and  _417
REMARK  174  A    between atoms: _416  and  _419
REMARK  175  A    between atoms: _419  and  _420
REMARK  176  A    between atoms: _423  and  _425
REMARK  177  A    between atoms: _425  and  _426
REMARK  178  A    between atoms: _425  and  _428
REMARK  179  A    between atoms: _428  and  _429
REMARK  180  A    between atoms: _432  and  _434
REMARK  181  A    between atoms: _434  and  _435
REMARK  182  A    between atoms: _434  and  _437
REMARK  183  A    between atoms: _437  and  _438
REMARK  184  A    between atoms: _440  and  _442
REMARK  185  A    between atoms: _442  and  _443
REMARK  186  A    between atoms: _442  and  _445
REMARK  187  A    between atoms: _445  and  _446
REMARK  188  A    between atoms: _456  and  _458
REMARK  189  A    between atoms: _458  and  _459
REMARK  190  A    between atoms: _461  and  _463
REMARK  191  A    between atoms: _463  and  _464
REMARK  192  A    between atoms: _463  and  _466
REMARK  193  A    between atoms: _466  and  _467
REMARK  194  A    between atoms: _467  and  _468
REMARK  195  A    between atoms: _471  and  _473
REMARK  196  A    between atoms: _473  and  _474
REMARK  197  A    between atoms: _476  and  _478
REMARK  198  A    between atoms: _478  and  _479
REMARK  199  A    between atoms: _478  and  _481
REMARK  200  A    between atoms: _481  and  _482
REMARK  201  A    between atoms: _483  and  _485
REMARK  202  A    between atoms: _485  and  _486
REMARK  203  A    between atoms: _489  and  _491
REMARK  204  A    between atoms: _491  and  _492
REMARK  205  A    between atoms: _491  and  _494
REMARK  206  A    between atoms: _494  and  _495
REMARK  207  A    between atoms: _495  and  _496
REMARK  208  A    between atoms: _501  and  _503
REMARK  209  A    between atoms: _503  and  _504
REMARK  210  A    between atoms: _503  and  _506
REMARK  211  A    between atoms: _506  and  _507
REMARK  212  A    between atoms: _507  and  _508
REMARK  213  A    between atoms: _508  and  _509
REMARK  214  A    between atoms: _519  and  _520
REMARK  215  A    between atoms: _525  and  _527
REMARK  216  A    between atoms: _527  and  _528
REMARK  217  A    between atoms: _530  and  _532
REMARK  218  A    between atoms: _532  and  _533
REMARK  219  A    between atoms: _532  and  _535
REMARK  220  A    between atoms: _538  and  _540
REMARK  221  A    between atoms: _540  and  _541
REMARK  222  A    between atoms: _540  and  _543
REMARK  223  A    between atoms: _543  and  _544
REMARK  224  A    between atoms: _549  and  _550
REMARK  225  A    between atoms: _552  and  _554
REMARK  226  A    between atoms: _554  and  _555
REMARK  227  A    between atoms: _554  and  _557
REMARK  228  A    between atoms: _557  and  _558
REMARK                            x       y       z     vdW  Elec       q    Type
REMARK                         _______ _______ _______ _____ _____    ______ ____
ROOT
ATOM      1  O   HOH     1     -57.705  -1.126 -26.345  0.00  0.00    +0.000 OA
ENDROOT
TORSDOF 0
REMARK  Name = ../refined-set-2016/4crc/4crc_pocket.pdb
REMARK  228 active torsions:
REMARK  status: ('A' for Active; 'I' for Inactive)
REMARK    1  A    between atoms: _1  and  _5
REMARK    2  A    between atoms: _5  and  _6
REMARK    3  A    between atoms: _5  and  _8
REMARK    4  A    between atoms: _8  and  _9
REMARK    5  A    between atoms: _12  and  _14
REMARK    6  A    between atoms: _14  and  _15
REMARK    7  A    between atoms: _14  and  _17
REMARK    8  A    between atoms: _20  and  _22
REMARK    9  A    between atoms: _22  and  _23
REMARK   10  A    between atoms: _22  and  _25
REMARK   11  A    between atoms: _25  and  _26
REMARK   12  A    between atoms: _26  and  _27
REMARK   13  A    between atoms: _27  and  _28
REMARK   14  A    between atoms: _37  and  _39
REMARK   15  A    between atoms: _39  and  _40
REMARK   16  A    between atoms: _39  and  _42
REMARK   17  A    between atoms: _42  and  _43
REMARK   18  A    between atoms: _48  and  _50
REMARK   19  A    between atoms: _50  and  _51
REMARK   20  A    between atoms: _50  and  _53
REMARK   21  A    between atoms: _53  and  _54
REMARK   22  A    between atoms: _57  and  _59
REMARK   23  A    between atoms: _59  and  _60
REMARK   24  A    between atoms: _59  and  _62
REMARK   25  A    between atoms: _62  and  _63
REMARK   26  A    between atoms: _63  and  _98
REMARK   27  A    between atoms: _64  and  _66
REMARK   28  A    between atoms: _66  and  _67
REMARK   29  A    between atoms: _69  and  _71
REMARK   30  A    between atoms: _71  and  _72
REMARK   31  A    between atoms: _75  and  _77
REMARK   32  A    between atoms: _77  and  _78
REMARK   33  A    between atoms: _81  and  _83
REMARK   34  A    between atoms: _83  and  _84
REMARK   35  A    between atoms: _83  and  _86
REMARK   36  A    between atoms: _86  and  _87
REMARK   37  A    between atoms: _92  and  _94
REMARK   38  A    between atoms: _94  and  _95
REMARK   39  A    between atoms: _94  and  _97
REMARK   40  A    between atoms: _97  and  _98
REMARK   41  A    between atoms: _99  and  _101
REMARK   42  A    between atoms: _101  and  _102
REMARK   43  A    between atoms: _101  and  _104
REMARK   44  A    between atoms: _104  and  _105
REMARK   45  A    between atoms: _111  and  _113
REMARK   46  A    between atoms: _113  and  _114
REMARK   47  A    between atoms: _113  and  _116
REMARK   48  A    between atoms: _116  and  _117
REMARK   49  A    between atoms: _122  and  _123
REMARK   50  A    between atoms: _125  and  _127
REMARK   51  A    between atoms: _127  and  _128
REMARK   52  A    between atoms: _130  and  _132
REMARK   53  A    between atoms: _132  and  _133
REMARK   54  A    between atoms: _132  and  _135
REMARK   55  A    between atoms: _138  and  _140
REMARK   56  A    between atoms: _140  and  _141
REMARK   57  A    between atoms: _140  and  _143
REMARK   58  A    between atoms: _143  and  _144
REMARK   59  A    between atoms: _149  and  _150
REMARK   60  A    between atoms: _152  and  _154
REMARK   61  A    between atoms: _154  and  _155
REMARK   62  A    between atoms: _158  and  _160
REMARK   63  A    between atoms: _160  and  _161
REMARK   64  A    between atoms: _160  and  _163
REMARK   65  A    between atoms: _163  and  _164
REMARK   66  A    between atoms: _164  and  _165
REMARK   67  A    between atoms: _168  and  _170
REMARK   68  A    between atoms: _170  and  _171
REMARK   69  A    between atoms: _170  and  _173
REMARK   70  A    between atoms: _173  and  _174
REMARK   71  A    between atoms: _177  and  _179
REMARK   72  A    between atoms: _179  and  _180
REMARK   73  A    between atoms: _179  and  _182
REMARK   74  A    between atoms: _185  and  _187
REMARK   75  A    between atoms: _187  and  _188
REMARK   76  A    between atoms: _187  and  _190
REMARK   77  A    between atoms: _190  and  _191
REMARK   78  A    between atoms: _201  and  _203
REMARK   79  A    between atoms: _203  and  _204
REMARK   80  A    between atoms: _206  and  _208
REMARK   81  A    between atoms: _208  and  _209
REMARK   82  A    between atoms: _208  and  _211
REMARK   83  A    between atoms: _211  and  _212
REMARK   84  A    between atoms: _217  and  _218
REMARK   85  A    between atoms: _220  and  _222
REMARK   86  A    between atoms: _222  and  _223
REMARK   87  A    between atoms: _222  and  _225
REMARK   88  A    between atoms: _225  and  _226
REMARK   89  A    between atoms: _226  and  _227
REMARK   90  A    between atoms: _227  and  _228
REMARK   91  A    between atoms: _228  and  _229
REMARK   92  A    between atoms: _233  and  _235
REMARK   93  A    between atoms: _235  and  _236
REMARK   94  A    between atoms: _235  and  _238
REMARK   95  A    between atoms: _238  and  _239
REMARK   96  A    between atoms: _242  and  _244
REMARK   97  A    between atoms: _244  and  _245
REMARK   98  A    between atoms: _244  and  _247
REMARK   99  A    between atoms: _247  and  _248
REMARK  100  A    between atoms: _248  and  _249
REMARK  101  A    between atoms: _249  and  _250
REMARK  102  A    between atoms: _259  and  _261
REMARK  103  A    between atoms: _261  and  _262
REMARK  104  A    between atoms: _261  and  _264
REMARK  105  A    between atoms: _264  and  _265
REMARK  106  A    between atoms: _268  and  _270
REMARK  107  A    between atoms: _270  and  _271
REMARK  108  A    between atoms: _270  and  _273
REMARK  109  A    between atoms: _273  and  _274
REMARK  110  A    between atoms: _274  and  _275
REMARK  111  A    between atoms: _275  and  _276
REMARK  112  A    between atoms: _276  and  _277
REMARK  113  A    between atoms: _281  and  _283
REMARK  114  A    between atoms: _283  and  _284
REMARK  115  A    between atoms: _283  and  _286
REMARK  116  A    between atoms: _286  and  _287
REMARK  117  A    between atoms: _290  and  _292
REMARK  118  A    between atoms: _292  and  _293
REMARK  119  A    between atoms: _292  and  _295
REMARK  120  A    between atoms: _295  and  _296
REMARK  121  A    between atoms: _296  and  _297
REMARK  122  A    between atoms: _302  and  _304
REMARK  123  A    between atoms: _304  and  _305
REMARK  124  A    between atoms: _304  and  _307
REMARK  125  A    between atoms: _307  and  _308
REMARK  126  A    between atoms: _311  and  _313
REMARK  127  A    between atoms: _313  and  _314
REMARK  128  A    between atoms: _313  and  _316
REMARK  129  A    between atoms: _316  and  _317
REMARK  130  A    between atoms: _322  and  _323
REMARK  131  A    between atoms: _325  and  _327
REMARK  132  A    between atoms: _327  and  _328
REMARK  133  A    between atoms: _327  and  _330
REMARK  134  A    between atoms: _330  and  _331
REMARK  135  A    between atoms: _334  and  _336
REMARK  136  A    between atoms: _336  and  _337
REMARK  137  A    between atoms: _336  and  _339
REMARK  138  A    between atoms: _341  and  _343
REMARK  139  A    between atoms: _343  and  _344
REMARK  140  A    between atoms: _347  and  _349
REMARK  141  A    between atoms: _349  and  _350
REMARK  142  A    between atoms: _349  and  _352
REMARK  143  A    between atoms: _352  and  _353
REMARK  144  A    between atoms: _356  and  _358
REMARK  145  A    between atoms: _358  and  _359
REMARK  146  A    between atoms: _362  and  _364
REMARK  147  A    between atoms: _364  and  _365
REMARK  148  A    between atoms: _364  and  _367
REMARK  149  A    between atoms: _367  and  _368
REMARK  150  A    between atoms: _368  and  _482
REMARK  151  A    between atoms: _369  and  _371
REMARK  152  A    between atoms: _371  and  _372
REMARK  153  A    between atoms: _371  and  _374
REMARK  154  A    between atoms: _374  and  _375
REMARK  155  A    between atoms: _375  and  _376
REMARK  156  A    between atoms: _376  and  _377
REMARK  157  A    between atoms: _377  and  _378
REMARK  158  A    between atoms: _382  and  _384
REMARK  159  A    between atoms: _384  and  _385
REMARK  160  A    between atoms: _387  and  _389
REMARK  161  A    between atoms: _389  and  _390
REMARK  162  A    between atoms: _389  and  _392
REMARK  163  A    between atoms: _392  and  _393
REMARK  164  A    between atoms: _396  and  _398
REMARK  165  A    between atoms: _398  and  _399
REMARK  166  A    between atoms: _398  and  _401
REMARK  167  A    between atoms: _401  and  _402
REMARK  168  A    between atoms: _404  and  _406
REMARK  169  A    between atoms: _406  and  _407
REMARK  170  A    between atoms: _409  and  _411
REMARK  171  A    between atoms: _411  and  _412
REMARK  172  A    between atoms: _414  and  _416
REMARK  173  A    between atoms: _416  and  _417
REMARK  174  A    between atoms: _416  and  _419
REMARK  175  A    between atoms: _419  and  _420
REMARK  176  A    between atoms: _423  and  _425
REMARK  177  A    between atoms: _425  and  _426
REMARK  178  A    between atoms: _425  and  _428
REMARK  179  A    between atoms: _428  and  _429
REMARK  180  A    between atoms: _432  and  _434
REMARK  181  A    between atoms: _434  and  _435
REMARK  182  A    between atoms: _434  and  _437
REMARK  183  A    between atoms: _437  and  _438
REMARK  184  A    between atoms: _440  and  _442
REMARK  185  A    between atoms: _442  and  _443
REMARK  186  A    between atoms: _442  and  _445
REMARK  187  A    between atoms: _445  and  _446
REMARK  188  A    between atoms: _456  and  _458
REMARK  189  A    between atoms: _458  and  _459
REMARK  190  A    between atoms: _461  and  _463
REMARK  191  A    between atoms: _463  and  _464
REMARK  192  A    between atoms: _463  and  _466
REMARK  193  A    between atoms: _466  and  _467
REMARK  194  A    between atoms: _467  and  _468
REMARK  195  A    between atoms: _471  and  _473
REMARK  196  A    between atoms: _473  and  _474
REMARK  197  A    between atoms: _476  and  _478
REMARK  198  A    between atoms: _478  and  _479
REMARK  199  A    between atoms: _478  and  _481
REMARK  200  A    between atoms: _481  and  _482
REMARK  201  A    between atoms: _483  and  _485
REMARK  202  A    between atoms: _485  and  _486
REMARK  203  A    between atoms: _489  and  _491
REMARK  204  A    between atoms: _491  and  _492
REMARK  205  A    between atoms: _491  and  _494
REMARK  206  A    between atoms: _494  and  _495
REMARK  207  A    between atoms: _495  and  _496
REMARK  208  A    between atoms: _501  and  _503
REMARK  209  A    between atoms: _503  and  _504
REMARK  210  A    between atoms: _503  and  _506
REMARK  211  A    between atoms: _506  and  _507
REMARK  212  A    between atoms: _507  and  _508
REMARK  213  A    between atoms: _508  and  _509
REMARK  214  A    between atoms: _519  and  _520
REMARK  215  A    between atoms: _525  and  _527
REMARK  216  A    between atoms: _527  and  _528
REMARK  217  A    between atoms: _530  and  _532
REMARK  218  A    between atoms: _532  and  _533
REMARK  219  A    between atoms: _532  and  _535
REMARK  220  A    between atoms: _538  and  _540
REMARK  221  A    between atoms: _540  and  _541
REMARK  222  A    between atoms: _540  and  _543
REMARK  223  A    between atoms: _543  and  _544
REMARK  224  A    between atoms: _549  and  _550
REMARK  225  A    between atoms: _552  and  _554
REMARK  226  A    between atoms: _554  and  _555
REMARK  227  A    between atoms: _554  and  _557
REMARK  228  A    between atoms: _557  and  _558
REMARK                            x       y       z     vdW  Elec       q    Type
REMARK                         _______ _______ _______ _____ _____    ______ ____
ROOT
ATOM      1  O   HOH     1     -46.571 -10.479 -13.920  0.00  0.00    +0.000 OA
ENDROOT
TORSDOF 0
REMARK  Name = ../refined-set-2016/4crc/4crc_pocket.pdb
REMARK  228 active torsions:
REMARK  status: ('A' for Active; 'I' for Inactive)
REMARK    1  A    between atoms: _1  and  _5
REMARK    2  A    between atoms: _5  and  _6
REMARK    3  A    between atoms: _5  and  _8
REMARK    4  A    between atoms: _8  and  _9
REMARK    5  A    between atoms: _12  and  _14
REMARK    6  A    between atoms: _14  and  _15
REMARK    7  A    between atoms: _14  and  _17
REMARK    8  A    between atoms: _20  and  _22
REMARK    9  A    between atoms: _22  and  _23
REMARK   10  A    between atoms: _22  and  _25
REMARK   11  A    between atoms: _25  and  _26
REMARK   12  A    between atoms: _26  and  _27
REMARK   13  A    between atoms: _27  and  _28
REMARK   14  A    between atoms: _37  and  _39
REMARK   15  A    between atoms: _39  and  _40
REMARK   16  A    between atoms: _39  and  _42
REMARK   17  A    between atoms: _42  and  _43
REMARK   18  A    between atoms: _48  and  _50
REMARK   19  A    between atoms: _50  and  _51
REMARK   20  A    between atoms: _50  and  _53
REMARK   21  A    between atoms: _53  and  _54
REMARK   22  A    between atoms: _57  and  _59
REMARK   23  A    between atoms: _59  and  _60
REMARK   24  A    between atoms: _59  and  _62
REMARK   25  A    between atoms: _62  and  _63
REMARK   26  A    between atoms: _63  and  _98
REMARK   27  A    between atoms: _64  and  _66
REMARK   28  A    between atoms: _66  and  _67
REMARK   29  A    between atoms: _69  and  _71
REMARK   30  A    between atoms: _71  and  _72
REMARK   31  A    between atoms: _75  and  _77
REMARK   32  A    between atoms: _77  and  _78
REMARK   33  A    between atoms: _81  and  _83
REMARK   34  A    between atoms: _83  and  _84
REMARK   35  A    between atoms: _83  and  _86
REMARK   36  A    between atoms: _86  and  _87
REMARK   37  A    between atoms: _92  and  _94
REMARK   38  A    between atoms: _94  and  _95
REMARK   39  A    between atoms: _94  and  _97
REMARK   40  A    between atoms: _97  and  _98
REMARK   41  A    between atoms: _99  and  _101
REMARK   42  A    between atoms: _101  and  _102
REMARK   43  A    between atoms: _101  and  _104
REMARK   44  A    between atoms: _104  and  _105
REMARK   45  A    between atoms: _111  and  _113
REMARK   46  A    between atoms: _113  and  _114
REMARK   47  A    between atoms: _113  and  _116
REMARK   48  A    between atoms: _116  and  _117
REMARK   49  A    between atoms: _122  and  _123
REMARK   50  A    between atoms: _125  and  _127
REMARK   51  A    between atoms: _127  and  _128
REMARK   52  A    between atoms: _130  and  _132
REMARK   53  A    between atoms: _132  and  _133
REMARK   54  A    between atoms: _132  and  _135
REMARK   55  A    between atoms: _138  and  _140
REMARK   56  A    between atoms: _140  and  _141
REMARK   57  A    between atoms: _140  and  _143
REMARK   58  A    between atoms: _143  and  _144
REMARK   59  A    between atoms: _149  and  _150
REMARK   60  A    between atoms: _152  and  _154
REMARK   61  A    between atoms: _154  and  _155
REMARK   62  A    between atoms: _158  and  _160
REMARK   63  A    between atoms: _160  and  _161
REMARK   64  A    between atoms: _160  and  _163
REMARK   65  A    between atoms: _163  and  _164
REMARK   66  A    between atoms: _164  and  _165
REMARK   67  A    between atoms: _168  and  _170
REMARK   68  A    between atoms: _170  and  _171
REMARK   69  A    between atoms: _170  and  _173
REMARK   70  A    between atoms: _173  and  _174
REMARK   71  A    between atoms: _177  and  _179
REMARK   72  A    between atoms: _179  and  _180
REMARK   73  A    between atoms: _179  and  _182
REMARK   74  A    between atoms: _185  and  _187
REMARK   75  A    between atoms: _187  and  _188
REMARK   76  A    between atoms: _187  and  _190
REMARK   77  A    between atoms: _190  and  _191
REMARK   78  A    between atoms: _201  and  _203
REMARK   79  A    between atoms: _203  and  _204
REMARK   80  A    between atoms: _206  and  _208
REMARK   81  A    between atoms: _208  and  _209
REMARK   82  A    between atoms: _208  and  _211
REMARK   83  A    between atoms: _211  and  _212
REMARK   84  A    between atoms: _217  and  _218
REMARK   85  A    between atoms: _220  and  _222
REMARK   86  A    between atoms: _222  and  _223
REMARK   87  A    between atoms: _222  and  _225
REMARK   88  A    between atoms: _225  and  _226
REMARK   89  A    between atoms: _226  and  _227
REMARK   90  A    between atoms: _227  and  _228
REMARK   91  A    between atoms: _228  and  _229
REMARK   92  A    between atoms: _233  and  _235
REMARK   93  A    between atoms: _235  and  _236
REMARK   94  A    between atoms: _235  and  _238
REMARK   95  A    between atoms: _238  and  _239
REMARK   96  A    between atoms: _242  and  _244
REMARK   97  A    between atoms: _244  and  _245
REMARK   98  A    between atoms: _244  and  _247
REMARK   99  A    between atoms: _247  and  _248
REMARK  100  A    between atoms: _248  and  _249
REMARK  101  A    between atoms: _249  and  _250
REMARK  102  A    between atoms: _259  and  _261
REMARK  103  A    between atoms: _261  and  _262
REMARK  104  A    between atoms: _261  and  _264
REMARK  105  A    between atoms: _264  and  _265
REMARK  106  A    between atoms: _268  and  _270
REMARK  107  A    between atoms: _270  and  _271
REMARK  108  A    between atoms: _270  and  _273
REMARK  109  A    between atoms: _273  and  _274
REMARK  110  A    between atoms: _274  and  _275
REMARK  111  A    between atoms: _275  and  _276
REMARK  112  A    between atoms: _276  and  _277
REMARK  113  A    between atoms: _281  and  _283
REMARK  114  A    between atoms: _283  and  _284
REMARK  115  A    between atoms: _283  and  _286
REMARK  116  A    between atoms: _286  and  _287
REMARK  117  A    between atoms: _290  and  _292
REMARK  118  A    between atoms: _292  and  _293
REMARK  119  A    between atoms: _292  and  _295
REMARK  120  A    between atoms: _295  and  _296
REMARK  121  A    between atoms: _296  and  _297
REMARK  122  A    between atoms: _302  and  _304
REMARK  123  A    between atoms: _304  and  _305
REMARK  124  A    between atoms: _304  and  _307
REMARK  125  A    between atoms: _307  and  _308
REMARK  126  A    between atoms: _311  and  _313
REMARK  127  A    between atoms: _313  and  _314
REMARK  128  A    between atoms: _313  and  _316
REMARK  129  A    between atoms: _316  and  _317
REMARK  130  A    between atoms: _322  and  _323
REMARK  131  A    between atoms: _325  and  _327
REMARK  132  A    between atoms: _327  and  _328
REMARK  133  A    between atoms: _327  and  _330
REMARK  134  A    between atoms: _330  and  _331
REMARK  135  A    between atoms: _334  and  _336
REMARK  136  A    between atoms: _336  and  _337
REMARK  137  A    between atoms: _336  and  _339
REMARK  138  A    between atoms: _341  and  _343
REMARK  139  A    between atoms: _343  and  _344
REMARK  140  A    between atoms: _347  and  _349
REMARK  141  A    between atoms: _349  and  _350
REMARK  142  A    between atoms: _349  and  _352
REMARK  143  A    between atoms: _352  and  _353
REMARK  144  A    between atoms: _356  and  _358
REMARK  145  A    between atoms: _358  and  _359
REMARK  146  A    between atoms: _362  and  _364
REMARK  147  A    between atoms: _364  and  _365
REMARK  148  A    between atoms: _364  and  _367
REMARK  149  A    between atoms: _367  and  _368
REMARK  150  A    between atoms: _368  and  _482
REMARK  151  A    between atoms: _369  and  _371
REMARK  152  A    between atoms: _371  and  _372
REMARK  153  A    between atoms: _371  and  _374
REMARK  154  A    between atoms: _374  and  _375
REMARK  155  A    between atoms: _375  and  _376
REMARK  156  A    between atoms: _376  and  _377
REMARK  157  A    between atoms: _377  and  _378
REMARK  158  A    between atoms: _382  and  _384
REMARK  159  A    between atoms: _384  and  _385
REMARK  160  A    between atoms: _387  and  _389
REMARK  161  A    between atoms: _389  and  _390
REMARK  162  A    between atoms: _389  and  _392
REMARK  163  A    between atoms: _392  and  _393
REMARK  164  A    between atoms: _396  and  _398
REMARK  165  A    between atoms: _398  and  _399
REMARK  166  A    between atoms: _398  and  _401
REMARK  167  A    between atoms: _401  and  _402
REMARK  168  A    between atoms: _404  and  _406
REMARK  169  A    between atoms: _406  and  _407
REMARK  170  A    between atoms: _409  and  _411
REMARK  171  A    between atoms: _411  and  _412
REMARK  172  A    between atoms: _414  and  _416
REMARK  173  A    between atoms: _416  and  _417
REMARK  174  A    between atoms: _416  and  _419
REMARK  175  A    between atoms: _419  and  _420
REMARK  176  A    between atoms: _423  and  _425
REMARK  177  A    between atoms: _425  and  _426
REMARK  178  A    between atoms: _425  and  _428
REMARK  179  A    between atoms: _428  and  _429
REMARK  180  A    between atoms: _432  and  _434
REMARK  181  A    between atoms: _434  and  _435
REMARK  182  A    between atoms: _434  and  _437
REMARK  183  A    between atoms: _437  and  _438
REMARK  184  A    between atoms: _440  and  _442
REMARK  185  A    between atoms: _442  and  _443
REMARK  186  A    between atoms: _442  and  _445
REMARK  187  A    between atoms: _445  and  _446
REMARK  188  A    between atoms: _456  and  _458
REMARK  189  A    between atoms: _458  and  _459
REMARK  190  A    between atoms: _461  and  _463
REMARK  191  A    between atoms: _463  and  _464
REMARK  192  A    between atoms: _463  and  _466
REMARK  193  A    between atoms: _466  and  _467
REMARK  194  A    between atoms: _467  and  _468
REMARK  195  A    between atoms: _471  and  _473
REMARK  196  A    between atoms: _473  and  _474
REMARK  197  A    between atoms: _476  and  _478
REMARK  198  A    between atoms: _478  and  _479
REMARK  199  A    between atoms: _478  and  _481
REMARK  200  A    between atoms: _481  and  _482
REMARK  201  A    between atoms: _483  and  _485
REMARK  202  A    between atoms: _485  and  _486
REMARK  203  A    between atoms: _489  and  _491
REMARK  204  A    between atoms: _491  and  _492
REMARK  205  A    between atoms: _491  and  _494
REMARK  206  A    between atoms: _494  and  _495
REMARK  207  A    between atoms: _495  and  _496
REMARK  208  A    between atoms: _501  and  _503
REMARK  209  A    between atoms: _503  and  _504
REMARK  210  A    between atoms: _503  and  _506
REMARK  211  A    between atoms: _506  and  _507
REMARK  212  A    between atoms: _507  and  _508
REMARK  213  A    between atoms: _508  and  _509
REMARK  214  A    between atoms: _519  and  _520
REMARK  215  A    between atoms: _525  and  _527
REMARK  216  A    between atoms: _527  and  _528
REMARK  217  A    between atoms: _530  and  _532
REMARK  218  A    between atoms: _532  and  _533
REMARK  219  A    between atoms: _532  and  _535
REMARK  220  A    between atoms: _538  and  _540
REMARK  221  A    between atoms: _540  and  _541
REMARK  222  A    between atoms: _540  and  _543
REMARK  223  A    between atoms: _543  and  _544
REMARK  224  A    between atoms: _549  and  _550
REMARK  225  A    between atoms: _552  and  _554
REMARK  226  A    between atoms: _554  and  _555
REMARK  227  A    between atoms: _554  and  _557
REMARK  228  A    between atoms: _557  and  _558
REMARK                            x       y       z     vdW  Elec       q    Type
REMARK                         _______ _______ _______ _____ _____    ______ ____
ROOT
ATOM      1  O   HOH     1     -41.760  -7.512 -15.997  0.00  0.00    +0.000 OA
ENDROOT
TORSDOF 0
REMARK  Name = ../refined-set-2016/4crc/4crc_pocket.pdb
REMARK  228 active torsions:
REMARK  status: ('A' for Active; 'I' for Inactive)
REMARK    1  A    between atoms: _1  and  _5
REMARK    2  A    between atoms: _5  and  _6
REMARK    3  A    between atoms: _5  and  _8
REMARK    4  A    between atoms: _8  and  _9
REMARK    5  A    between atoms: _12  and  _14
REMARK    6  A    between atoms: _14  and  _15
REMARK    7  A    between atoms: _14  and  _17
REMARK    8  A    between atoms: _20  and  _22
REMARK    9  A    between atoms: _22  and  _23
REMARK   10  A    between atoms: _22  and  _25
REMARK   11  A    between atoms: _25  and  _26
REMARK   12  A    between atoms: _26  and  _27
REMARK   13  A    between atoms: _27  and  _28
REMARK   14  A    between atoms: _37  and  _39
REMARK   15  A    between atoms: _39  and  _40
REMARK   16  A    between atoms: _39  and  _42
REMARK   17  A    between atoms: _42  and  _43
REMARK   18  A    between atoms: _48  and  _50
REMARK   19  A    between atoms: _50  and  _51
REMARK   20  A    between atoms: _50  and  _53
REMARK   21  A    between atoms: _53  and  _54
REMARK   22  A    between atoms: _57  and  _59
REMARK   23  A    between atoms: _59  and  _60
REMARK   24  A    between atoms: _59  and  _62
REMARK   25  A    between atoms: _62  and  _63
REMARK   26  A    between atoms: _63  and  _98
REMARK   27  A    between atoms: _64  and  _66
REMARK   28  A    between atoms: _66  and  _67
REMARK   29  A    between atoms: _69  and  _71
REMARK   30  A    between atoms: _71  and  _72
REMARK   31  A    between atoms: _75  and  _77
REMARK   32  A    between atoms: _77  and  _78
REMARK   33  A    between atoms: _81  and  _83
REMARK   34  A    between atoms: _83  and  _84
REMARK   35  A    between atoms: _83  and  _86
REMARK   36  A    between atoms: _86  and  _87
REMARK   37  A    between atoms: _92  and  _94
REMARK   38  A    between atoms: _94  and  _95
REMARK   39  A    between atoms: _94  and  _97
REMARK   40  A    between atoms: _97  and  _98
REMARK   41  A    between atoms: _99  and  _101
REMARK   42  A    between atoms: _101  and  _102
REMARK   43  A    between atoms: _101  and  _104
REMARK   44  A    between atoms: _104  and  _105
REMARK   45  A    between atoms: _111  and  _113
REMARK   46  A    between atoms: _113  and  _114
REMARK   47  A    between atoms: _113  and  _116
REMARK   48  A    between atoms: _116  and  _117
REMARK   49  A    between atoms: _122  and  _123
REMARK   50  A    between atoms: _125  and  _127
REMARK   51  A    between atoms: _127  and  _128
REMARK   52  A    between atoms: _130  and  _132
REMARK   53  A    between atoms: _132  and  _133
REMARK   54  A    between atoms: _132  and  _135
REMARK   55  A    between atoms: _138  and  _140
REMARK   56  A    between atoms: _140  and  _141
REMARK   57  A    between atoms: _140  and  _143
REMARK   58  A    between atoms: _143  and  _144
REMARK   59  A    between atoms: _149  and  _150
REMARK   60  A    between atoms: _152  and  _154
REMARK   61  A    between atoms: _154  and  _155
REMARK   62  A    between atoms: _158  and  _160
REMARK   63  A    between atoms: _160  and  _161
REMARK   64  A    between atoms: _160  and  _163
REMARK   65  A    between atoms: _163  and  _164
REMARK   66  A    between atoms: _164  and  _165
REMARK   67  A    between atoms: _168  and  _170
REMARK   68  A    between atoms: _170  and  _171
REMARK   69  A    between atoms: _170  and  _173
REMARK   70  A    between atoms: _173  and  _174
REMARK   71  A    between atoms: _177  and  _179
REMARK   72  A    between atoms: _179  and  _180
REMARK   73  A    between atoms: _179  and  _182
REMARK   74  A    between atoms: _185  and  _187
REMARK   75  A    between atoms: _187  and  _188
REMARK   76  A    between atoms: _187  and  _190
REMARK   77  A    between atoms: _190  and  _191
REMARK   78  A    between atoms: _201  and  _203
REMARK   79  A    between atoms: _203  and  _204
REMARK   80  A    between atoms: _206  and  _208
REMARK   81  A    between atoms: _208  and  _209
REMARK   82  A    between atoms: _208  and  _211
REMARK   83  A    between atoms: _211  and  _212
REMARK   84  A    between atoms: _217  and  _218
REMARK   85  A    between atoms: _220  and  _222
REMARK   86  A    between atoms: _222  and  _223
REMARK   87  A    between atoms: _222  and  _225
REMARK   88  A    between atoms: _225  and  _226
REMARK   89  A    between atoms: _226  and  _227
REMARK   90  A    between atoms: _227  and  _228
REMARK   91  A    between atoms: _228  and  _229
REMARK   92  A    between atoms: _233  and  _235
REMARK   93  A    between atoms: _235  and  _236
REMARK   94  A    between atoms: _235  and  _238
REMARK   95  A    between atoms: _238  and  _239
REMARK   96  A    between atoms: _242  and  _244
REMARK   97  A    between atoms: _244  and  _245
REMARK   98  A    between atoms: _244  and  _247
REMARK   99  A    between atoms: _247  and  _248
REMARK  100  A    between atoms: _248  and  _249
REMARK  101  A    between atoms: _249  and  _250
REMARK  102  A    between atoms: _259  and  _261
REMARK  103  A    between atoms: _261  and  _262
REMARK  104  A    between atoms: _261  and  _264
REMARK  105  A    between atoms: _264  and  _265
REMARK  106  A    between atoms: _268  and  _270
REMARK  107  A    between atoms: _270  and  _271
REMARK  108  A    between atoms: _270  and  _273
REMARK  109  A    between atoms: _273  and  _274
REMARK  110  A    between atoms: _274  and  _275
REMARK  111  A    between atoms: _275  and  _276
REMARK  112  A    between atoms: _276  and  _277
REMARK  113  A    between atoms: _281  and  _283
REMARK  114  A    between atoms: _283  and  _284
REMARK  115  A    between atoms: _283  and  _286
REMARK  116  A    between atoms: _286  and  _287
REMARK  117  A    between atoms: _290  and  _292
REMARK  118  A    between atoms: _292  and  _293
REMARK  119  A    between atoms: _292  and  _295
REMARK  120  A    between atoms: _295  and  _296
REMARK  121  A    between atoms: _296  and  _297
REMARK  122  A    between atoms: _302  and  _304
REMARK  123  A    between atoms: _304  and  _305
REMARK  124  A    between atoms: _304  and  _307
REMARK  125  A    between atoms: _307  and  _308
REMARK  126  A    between atoms: _311  and  _313
REMARK  127  A    between atoms: _313  and  _314
REMARK  128  A    between atoms: _313  and  _316
REMARK  129  A    between atoms: _316  and  _317
REMARK  130  A    between atoms: _322  and  _323
REMARK  131  A    between atoms: _325  and  _327
REMARK  132  A    between atoms: _327  and  _328
REMARK  133  A    between atoms: _327  and  _330
REMARK  134  A    between atoms: _330  and  _331
REMARK  135  A    between atoms: _334  and  _336
REMARK  136  A    between atoms: _336  and  _337
REMARK  137  A    between atoms: _336  and  _339
REMARK  138  A    between atoms: _341  and  _343
REMARK  139  A    between atoms: _343  and  _344
REMARK  140  A    between atoms: _347  and  _349
REMARK  141  A    between atoms: _349  and  _350
REMARK  142  A    between atoms: _349  and  _352
REMARK  143  A    between atoms: _352  and  _353
REMARK  144  A    between atoms: _356  and  _358
REMARK  145  A    between atoms: _358  and  _359
REMARK  146  A    between atoms: _362  and  _364
REMARK  147  A    between atoms: _364  and  _365
REMARK  148  A    between atoms: _364  and  _367
REMARK  149  A    between atoms: _367  and  _368
REMARK  150  A    between atoms: _368  and  _482
REMARK  151  A    between atoms: _369  and  _371
REMARK  152  A    between atoms: _371  and  _372
REMARK  153  A    between atoms: _371  and  _374
REMARK  154  A    between atoms: _374  and  _375
REMARK  155  A    between atoms: _375  and  _376
REMARK  156  A    between atoms: _376  and  _377
REMARK  157  A    between atoms: _377  and  _378
REMARK  158  A    between atoms: _382  and  _384
REMARK  159  A    between atoms: _384  and  _385
REMARK  160  A    between atoms: _387  and  _389
REMARK  161  A    between atoms: _389  and  _390
REMARK  162  A    between atoms: _389  and  _392
REMARK  163  A    between atoms: _392  and  _393
REMARK  164  A    between atoms: _396  and  _398
REMARK  165  A    between atoms: _398  and  _399
REMARK  166  A    between atoms: _398  and  _401
REMARK  167  A    between atoms: _401  and  _402
REMARK  168  A    between atoms: _404  and  _406
REMARK  169  A    between atoms: _406  and  _407
REMARK  170  A    between atoms: _409  and  _411
REMARK  171  A    between atoms: _411  and  _412
REMARK  172  A    between atoms: _414  and  _416
REMARK  173  A    between atoms: _416  and  _417
REMARK  174  A    between atoms: _416  and  _419
REMARK  175  A    between atoms: _419  and  _420
REMARK  176  A    between atoms: _423  and  _425
REMARK  177  A    between atoms: _425  and  _426
REMARK  178  A    between atoms: _425  and  _428
REMARK  179  A    between atoms: _428  and  _429
REMARK  180  A    between atoms: _432  and  _434
REMARK  181  A    between atoms: _434  and  _435
REMARK  182  A    between atoms: _434  and  _437
REMARK  183  A    between atoms: _437  and  _438
REMARK  184  A    between atoms: _440  and  _442
REMARK  185  A    between atoms: _442  and  _443
REMARK  186  A    between atoms: _442  and  _445
REMARK  187  A    between atoms: _445  and  _446
REMARK  188  A    between atoms: _456  and  _458
REMARK  189  A    between atoms: _458  and  _459
REMARK  190  A    between atoms: _461  and  _463
REMARK  191  A    between atoms: _463  and  _464
REMARK  192  A    between atoms: _463  and  _466
REMARK  193  A    between atoms: _466  and  _467
REMARK  194  A    between atoms: _467  and  _468
REMARK  195  A    between atoms: _471  and  _473
REMARK  196  A    between atoms: _473  and  _474
REMARK  197  A    between atoms: _476  and  _478
REMARK  198  A    between atoms: _478  and  _479
REMARK  199  A    between atoms: _478  and  _481
REMARK  200  A    between atoms: _481  and  _482
REMARK  201  A    between atoms: _483  and  _485
REMARK  202  A    between atoms: _485  and  _486
REMARK  203  A    between atoms: _489  and  _491
REMARK  204  A    between atoms: _491  and  _492
REMARK  205  A    between atoms: _491  and  _494
REMARK  206  A    between atoms: _494  and  _495
REMARK  207  A    between atoms: _495  and  _496
REMARK  208  A    between atoms: _501  and  _503
REMARK  209  A    between atoms: _503  and  _504
REMARK  210  A    between atoms: _503  and  _506
REMARK  211  A    between atoms: _506  and  _507
REMARK  212  A    between atoms: _507  and  _508
REMARK  213  A    between atoms: _508  and  _509
REMARK  214  A    between atoms: _519  and  _520
REMARK  215  A    between atoms: _525  and  _527
REMARK  216  A    between atoms: _527  and  _528
REMARK  217  A    between atoms: _530  and  _532
REMARK  218  A    between atoms: _532  and  _533
REMARK  219  A    between atoms: _532  and  _535
REMARK  220  A    between atoms: _538  and  _540
REMARK  221  A    between atoms: _540  and  _541
REMARK  222  A    between atoms: _540  and  _543
REMARK  223  A    between atoms: _543  and  _544
REMARK  224  A    between atoms: _549  and  _550
REMARK  225  A    between atoms: _552  and  _554
REMARK  226  A    between atoms: _554  and  _555
REMARK  227  A    between atoms: _554  and  _557
REMARK  228  A    between atoms: _557  and  _558
REMARK                            x       y       z     vdW  Elec       q    Type
REMARK                         _______ _______ _______ _____ _____    ______ ____
ROOT
ATOM      1  O   HOH     1     -48.131  -9.211 -11.875  0.00  0.00    +0.000 OA
ENDROOT
TORSDOF 0
REMARK  Name = ../refined-set-2016/4crc/4crc_pocket.pdb
REMARK  228 active torsions:
REMARK  status: ('A' for Active; 'I' for Inactive)
REMARK    1  A    between atoms: _1  and  _5
REMARK    2  A    between atoms: _5  and  _6
REMARK    3  A    between atoms: _5  and  _8
REMARK    4  A    between atoms: _8  and  _9
REMARK    5  A    between atoms: _12  and  _14
REMARK    6  A    between atoms: _14  and  _15
REMARK    7  A    between atoms: _14  and  _17
REMARK    8  A    between atoms: _20  and  _22
REMARK    9  A    between atoms: _22  and  _23
REMARK   10  A    between atoms: _22  and  _25
REMARK   11  A    between atoms: _25  and  _26
REMARK   12  A    between atoms: _26  and  _27
REMARK   13  A    between atoms: _27  and  _28
REMARK   14  A    between atoms: _37  and  _39
REMARK   15  A    between atoms: _39  and  _40
REMARK   16  A    between atoms: _39  and  _42
REMARK   17  A    between atoms: _42  and  _43
REMARK   18  A    between atoms: _48  and  _50
REMARK   19  A    between atoms: _50  and  _51
REMARK   20  A    between atoms: _50  and  _53
REMARK   21  A    between atoms: _53  and  _54
REMARK   22  A    between atoms: _57  and  _59
REMARK   23  A    between atoms: _59  and  _60
REMARK   24  A    between atoms: _59  and  _62
REMARK   25  A    between atoms: _62  and  _63
REMARK   26  A    between atoms: _63  and  _98
REMARK   27  A    between atoms: _64  and  _66
REMARK   28  A    between atoms: _66  and  _67
REMARK   29  A    between atoms: _69  and  _71
REMARK   30  A    between atoms: _71  and  _72
REMARK   31  A    between atoms: _75  and  _77
REMARK   32  A    between atoms: _77  and  _78
REMARK   33  A    between atoms: _81  and  _83
REMARK   34  A    between atoms: _83  and  _84
REMARK   35  A    between atoms: _83  and  _86
REMARK   36  A    between atoms: _86  and  _87
REMARK   37  A    between atoms: _92  and  _94
REMARK   38  A    between atoms: _94  and  _95
REMARK   39  A    between atoms: _94  and  _97
REMARK   40  A    between atoms: _97  and  _98
REMARK   41  A    between atoms: _99  and  _101
REMARK   42  A    between atoms: _101  and  _102
REMARK   43  A    between atoms: _101  and  _104
REMARK   44  A    between atoms: _104  and  _105
REMARK   45  A    between atoms: _111  and  _113
REMARK   46  A    between atoms: _113  and  _114
REMARK   47  A    between atoms: _113  and  _116
REMARK   48  A    between atoms: _116  and  _117
REMARK   49  A    between atoms: _122  and  _123
REMARK   50  A    between atoms: _125  and  _127
REMARK   51  A    between atoms: _127  and  _128
REMARK   52  A    between atoms: _130  and  _132
REMARK   53  A    between atoms: _132  and  _133
REMARK   54  A    between atoms: _132  and  _135
REMARK   55  A    between atoms: _138  and  _140
REMARK   56  A    between atoms: _140  and  _141
REMARK   57  A    between atoms: _140  and  _143
REMARK   58  A    between atoms: _143  and  _144
REMARK   59  A    between atoms: _149  and  _150
REMARK   60  A    between atoms: _152  and  _154
REMARK   61  A    between atoms: _154  and  _155
REMARK   62  A    between atoms: _158  and  _160
REMARK   63  A    between atoms: _160  and  _161
REMARK   64  A    between atoms: _160  and  _163
REMARK   65  A    between atoms: _163  and  _164
REMARK   66  A    between atoms: _164  and  _165
REMARK   67  A    between atoms: _168  and  _170
REMARK   68  A    between atoms: _170  and  _171
REMARK   69  A    between atoms: _170  and  _173
REMARK   70  A    between atoms: _173  and  _174
REMARK   71  A    between atoms: _177  and  _179
REMARK   72  A    between atoms: _179  and  _180
REMARK   73  A    between atoms: _179  and  _182
REMARK   74  A    between atoms: _185  and  _187
REMARK   75  A    between atoms: _187  and  _188
REMARK   76  A    between atoms: _187  and  _190
REMARK   77  A    between atoms: _190  and  _191
REMARK   78  A    between atoms: _201  and  _203
REMARK   79  A    between atoms: _203  and  _204
REMARK   80  A    between atoms: _206  and  _208
REMARK   81  A    between atoms: _208  and  _209
REMARK   82  A    between atoms: _208  and  _211
REMARK   83  A    between atoms: _211  and  _212
REMARK   84  A    between atoms: _217  and  _218
REMARK   85  A    between atoms: _220  and  _222
REMARK   86  A    between atoms: _222  and  _223
REMARK   87  A    between atoms: _222  and  _225
REMARK   88  A    between atoms: _225  and  _226
REMARK   89  A    between atoms: _226  and  _227
REMARK   90  A    between atoms: _227  and  _228
REMARK   91  A    between atoms: _228  and  _229
REMARK   92  A    between atoms: _233  and  _235
REMARK   93  A    between atoms: _235  and  _236
REMARK   94  A    between atoms: _235  and  _238
REMARK   95  A    between atoms: _238  and  _239
REMARK   96  A    between atoms: _242  and  _244
REMARK   97  A    between atoms: _244  and  _245
REMARK   98  A    between atoms: _244  and  _247
REMARK   99  A    between atoms: _247  and  _248
REMARK  100  A    between atoms: _248  and  _249
REMARK  101  A    between atoms: _249  and  _250
REMARK  102  A    between atoms: _259  and  _261
REMARK  103  A    between atoms: _261  and  _262
REMARK  104  A    between atoms: _261  and  _264
REMARK  105  A    between atoms: _264  and  _265
REMARK  106  A    between atoms: _268  and  _270
REMARK  107  A    between atoms: _270  and  _271
REMARK  108  A    between atoms: _270  and  _273
REMARK  109  A    between atoms: _273  and  _274
REMARK  110  A    between atoms: _274  and  _275
REMARK  111  A    between atoms: _275  and  _276
REMARK  112  A    between atoms: _276  and  _277
REMARK  113  A    between atoms: _281  and  _283
REMARK  114  A    between atoms: _283  and  _284
REMARK  115  A    between atoms: _283  and  _286
REMARK  116  A    between atoms: _286  and  _287
REMARK  117  A    between atoms: _290  and  _292
REMARK  118  A    between atoms: _292  and  _293
REMARK  119  A    between atoms: _292  and  _295
REMARK  120  A    between atoms: _295  and  _296
REMARK  121  A    between atoms: _296  and  _297
REMARK  122  A    between atoms: _302  and  _304
REMARK  123  A    between atoms: _304  and  _305
REMARK  124  A    between atoms: _304  and  _307
REMARK  125  A    between atoms: _307  and  _308
REMARK  126  A    between atoms: _311  and  _313
REMARK  127  A    between atoms: _313  and  _314
REMARK  128  A    between atoms: _313  and  _316
REMARK  129  A    between atoms: _316  and  _317
REMARK  130  A    between atoms: _322  and  _323
REMARK  131  A    between atoms: _325  and  _327
REMARK  132  A    between atoms: _327  and  _328
REMARK  133  A    between atoms: _327  and  _330
REMARK  134  A    between atoms: _330  and  _331
REMARK  135  A    between atoms: _334  and  _336
REMARK  136  A    between atoms: _336  and  _337
REMARK  137  A    between atoms: _336  and  _339
REMARK  138  A    between atoms: _341  and  _343
REMARK  139  A    between atoms: _343  and  _344
REMARK  140  A    between atoms: _347  and  _349
REMARK  141  A    between atoms: _349  and  _350
REMARK  142  A    between atoms: _349  and  _352
REMARK  143  A    between atoms: _352  and  _353
REMARK  144  A    between atoms: _356  and  _358
REMARK  145  A    between atoms: _358  and  _359
REMARK  146  A    between atoms: _362  and  _364
REMARK  147  A    between atoms: _364  and  _365
REMARK  148  A    between atoms: _364  and  _367
REMARK  149  A    between atoms: _367  and  _368
REMARK  150  A    between atoms: _368  and  _482
REMARK  151  A    between atoms: _369  and  _371
REMARK  152  A    between atoms: _371  and  _372
REMARK  153  A    between atoms: _371  and  _374
REMARK  154  A    between atoms: _374  and  _375
REMARK  155  A    between atoms: _375  and  _376
REMARK  156  A    between atoms: _376  and  _377
REMARK  157  A    between atoms: _377  and  _378
REMARK  158  A    between atoms: _382  and  _384
REMARK  159  A    between atoms: _384  and  _385
REMARK  160  A    between atoms: _387  and  _389
REMARK  161  A    between atoms: _389  and  _390
REMARK  162  A    between atoms: _389  and  _392
REMARK  163  A    between atoms: _392  and  _393
REMARK  164  A    between atoms: _396  and  _398
REMARK  165  A    between atoms: _398  and  _399
REMARK  166  A    between atoms: _398  and  _401
REMARK  167  A    between atoms: _401  and  _402
REMARK  168  A    between atoms: _404  and  _406
REMARK  169  A    between atoms: _406  and  _407
REMARK  170  A    between atoms: _409  and  _411
REMARK  171  A    between atoms: _411  and  _412
REMARK  172  A    between atoms: _414  and  _416
REMARK  173  A    between atoms: _416  and  _417
REMARK  174  A    between atoms: _416  and  _419
REMARK  175  A    between atoms: _419  and  _420
REMARK  176  A    between atoms: _423  and  _425
REMARK  177  A    between atoms: _425  and  _426
REMARK  178  A    between atoms: _425  and  _428
REMARK  179  A    between atoms: _428  and  _429
REMARK  180  A    between atoms: _432  and  _434
REMARK  181  A    between atoms: _434  and  _435
REMARK  182  A    between atoms: _434  and  _437
REMARK  183  A    between atoms: _437  and  _438
REMARK  184  A    between atoms: _440  and  _442
REMARK  185  A    between atoms: _442  and  _443
REMARK  186  A    between atoms: _442  and  _445
REMARK  187  A    between atoms: _445  and  _446
REMARK  188  A    between atoms: _456  and  _458
REMARK  189  A    between atoms: _458  and  _459
REMARK  190  A    between atoms: _461  and  _463
REMARK  191  A    between atoms: _463  and  _464
REMARK  192  A    between atoms: _463  and  _466
REMARK  193  A    between atoms: _466  and  _467
REMARK  194  A    between atoms: _467  and  _468
REMARK  195  A    between atoms: _471  and  _473
REMARK  196  A    between atoms: _473  and  _474
REMARK  197  A    between atoms: _476  and  _478
REMARK  198  A    between atoms: _478  and  _479
REMARK  199  A    between atoms: _478  and  _481
REMARK  200  A    between atoms: _481  and  _482
REMARK  201  A    between atoms: _483  and  _485
REMARK  202  A    between atoms: _485  and  _486
REMARK  203  A    between atoms: _489  and  _491
REMARK  204  A    between atoms: _491  and  _492
REMARK  205  A    between atoms: _491  and  _494
REMARK  206  A    between atoms: _494  and  _495
REMARK  207  A    between atoms: _495  and  _496
REMARK  208  A    between atoms: _501  and  _503
REMARK  209  A    between atoms: _503  and  _504
REMARK  210  A    between atoms: _503  and  _506
REMARK  211  A    between atoms: _506  and  _507
REMARK  212  A    between atoms: _507  and  _508
REMARK  213  A    between atoms: _508  and  _509
REMARK  214  A    between atoms: _519  and  _520
REMARK  215  A    between atoms: _525  and  _527
REMARK  216  A    between atoms: _527  and  _528
REMARK  217  A    between atoms: _530  and  _532
REMARK  218  A    between atoms: _532  and  _533
REMARK  219  A    between atoms: _532  and  _535
REMARK  220  A    between atoms: _538  and  _540
REMARK  221  A    between atoms: _540  and  _541
REMARK  222  A    between atoms: _540  and  _543
REMARK  223  A    between atoms: _543  and  _544
REMARK  224  A    between atoms: _549  and  _550
REMARK  225  A    between atoms: _552  and  _554
REMARK  226  A    between atoms: _554  and  _555
REMARK  227  A    between atoms: _554  and  _557
REMARK  228  A    between atoms: _557  and  _558
REMARK                            x       y       z     vdW  Elec       q    Type
REMARK                         _______ _______ _______ _____ _____    ______ ____
ROOT
ATOM      1  O   HOH     1     -56.741 -11.303 -17.251  0.00  0.00    +0.000 OA
ENDROOT
TORSDOF 0
REMARK  Name = ../refined-set-2016/4crc/4crc_pocket.pdb
REMARK  228 active torsions:
REMARK  status: ('A' for Active; 'I' for Inactive)
REMARK    1  A    between atoms: _1  and  _5
REMARK    2  A    between atoms: _5  and  _6
REMARK    3  A    between atoms: _5  and  _8
REMARK    4  A    between atoms: _8  and  _9
REMARK    5  A    between atoms: _12  and  _14
REMARK    6  A    between atoms: _14  and  _15
REMARK    7  A    between atoms: _14  and  _17
REMARK    8  A    between atoms: _20  and  _22
REMARK    9  A    between atoms: _22  and  _23
REMARK   10  A    between atoms: _22  and  _25
REMARK   11  A    between atoms: _25  and  _26
REMARK   12  A    between atoms: _26  and  _27
REMARK   13  A    between atoms: _27  and  _28
REMARK   14  A    between atoms: _37  and  _39
REMARK   15  A    between atoms: _39  and  _40
REMARK   16  A    between atoms: _39  and  _42
REMARK   17  A    between atoms: _42  and  _43
REMARK   18  A    between atoms: _48  and  _50
REMARK   19  A    between atoms: _50  and  _51
REMARK   20  A    between atoms: _50  and  _53
REMARK   21  A    between atoms: _53  and  _54
REMARK   22  A    between atoms: _57  and  _59
REMARK   23  A    between atoms: _59  and  _60
REMARK   24  A    between atoms: _59  and  _62
REMARK   25  A    between atoms: _62  and  _63
REMARK   26  A    between atoms: _63  and  _98
REMARK   27  A    between atoms: _64  and  _66
REMARK   28  A    between atoms: _66  and  _67
REMARK   29  A    between atoms: _69  and  _71
REMARK   30  A    between atoms: _71  and  _72
REMARK   31  A    between atoms: _75  and  _77
REMARK   32  A    between atoms: _77  and  _78
REMARK   33  A    between atoms: _81  and  _83
REMARK   34  A    between atoms: _83  and  _84
REMARK   35  A    between atoms: _83  and  _86
REMARK   36  A    between atoms: _86  and  _87
REMARK   37  A    between atoms: _92  and  _94
REMARK   38  A    between atoms: _94  and  _95
REMARK   39  A    between atoms: _94  and  _97
REMARK   40  A    between atoms: _97  and  _98
REMARK   41  A    between atoms: _99  and  _101
REMARK   42  A    between atoms: _101  and  _102
REMARK   43  A    between atoms: _101  and  _104
REMARK   44  A    between atoms: _104  and  _105
REMARK   45  A    between atoms: _111  and  _113
REMARK   46  A    between atoms: _113  and  _114
REMARK   47  A    between atoms: _113  and  _116
REMARK   48  A    between atoms: _116  and  _117
REMARK   49  A    between atoms: _122  and  _123
REMARK   50  A    between atoms: _125  and  _127
REMARK   51  A    between atoms: _127  and  _128
REMARK   52  A    between atoms: _130  and  _132
REMARK   53  A    between atoms: _132  and  _133
REMARK   54  A    between atoms: _132  and  _135
REMARK   55  A    between atoms: _138  and  _140
REMARK   56  A    between atoms: _140  and  _141
REMARK   57  A    between atoms: _140  and  _143
REMARK   58  A    between atoms: _143  and  _144
REMARK   59  A    between atoms: _149  and  _150
REMARK   60  A    between atoms: _152  and  _154
REMARK   61  A    between atoms: _154  and  _155
REMARK   62  A    between atoms: _158  and  _160
REMARK   63  A    between atoms: _160  and  _161
REMARK   64  A    between atoms: _160  and  _163
REMARK   65  A    between atoms: _163  and  _164
REMARK   66  A    between atoms: _164  and  _165
REMARK   67  A    between atoms: _168  and  _170
REMARK   68  A    between atoms: _170  and  _171
REMARK   69  A    between atoms: _170  and  _173
REMARK   70  A    between atoms: _173  and  _174
REMARK   71  A    between atoms: _177  and  _179
REMARK   72  A    between atoms: _179  and  _180
REMARK   73  A    between atoms: _179  and  _182
REMARK   74  A    between atoms: _185  and  _187
REMARK   75  A    between atoms: _187  and  _188
REMARK   76  A    between atoms: _187  and  _190
REMARK   77  A    between atoms: _190  and  _191
REMARK   78  A    between atoms: _201  and  _203
REMARK   79  A    between atoms: _203  and  _204
REMARK   80  A    between atoms: _206  and  _208
REMARK   81  A    between atoms: _208  and  _209
REMARK   82  A    between atoms: _208  and  _211
REMARK   83  A    between atoms: _211  and  _212
REMARK   84  A    between atoms: _217  and  _218
REMARK   85  A    between atoms: _220  and  _222
REMARK   86  A    between atoms: _222  and  _223
REMARK   87  A    between atoms: _222  and  _225
REMARK   88  A    between atoms: _225  and  _226
REMARK   89  A    between atoms: _226  and  _227
REMARK   90  A    between atoms: _227  and  _228
REMARK   91  A    between atoms: _228  and  _229
REMARK   92  A    between atoms: _233  and  _235
REMARK   93  A    between atoms: _235  and  _236
REMARK   94  A    between atoms: _235  and  _238
REMARK   95  A    between atoms: _238  and  _239
REMARK   96  A    between atoms: _242  and  _244
REMARK   97  A    between atoms: _244  and  _245
REMARK   98  A    between atoms: _244  and  _247
REMARK   99  A    between atoms: _247  and  _248
REMARK  100  A    between atoms: _248  and  _249
REMARK  101  A    between atoms: _249  and  _250
REMARK  102  A    between atoms: _259  and  _261
REMARK  103  A    between atoms: _261  and  _262
REMARK  104  A    between atoms: _261  and  _264
REMARK  105  A    between atoms: _264  and  _265
REMARK  106  A    between atoms: _268  and  _270
REMARK  107  A    between atoms: _270  and  _271
REMARK  108  A    between atoms: _270  and  _273
REMARK  109  A    between atoms: _273  and  _274
REMARK  110  A    between atoms: _274  and  _275
REMARK  111  A    between atoms: _275  and  _276
REMARK  112  A    between atoms: _276  and  _277
REMARK  113  A    between atoms: _281  and  _283
REMARK  114  A    between atoms: _283  and  _284
REMARK  115  A    between atoms: _283  and  _286
REMARK  116  A    between atoms: _286  and  _287
REMARK  117  A    between atoms: _290  and  _292
REMARK  118  A    between atoms: _292  and  _293
REMARK  119  A    between atoms: _292  and  _295
REMARK  120  A    between atoms: _295  and  _296
REMARK  121  A    between atoms: _296  and  _297
REMARK  122  A    between atoms: _302  and  _304
REMARK  123  A    between atoms: _304  and  _305
REMARK  124  A    between atoms: _304  and  _307
REMARK  125  A    between atoms: _307  and  _308
REMARK  126  A    between atoms: _311  and  _313
REMARK  127  A    between atoms: _313  and  _314
REMARK  128  A    between atoms: _313  and  _316
REMARK  129  A    between atoms: _316  and  _317
REMARK  130  A    between atoms: _322  and  _323
REMARK  131  A    between atoms: _325  and  _327
REMARK  132  A    between atoms: _327  and  _328
REMARK  133  A    between atoms: _327  and  _330
REMARK  134  A    between atoms: _330  and  _331
REMARK  135  A    between atoms: _334  and  _336
REMARK  136  A    between atoms: _336  and  _337
REMARK  137  A    between atoms: _336  and  _339
REMARK  138  A    between atoms: _341  and  _343
REMARK  139  A    between atoms: _343  and  _344
REMARK  140  A    between atoms: _347  and  _349
REMARK  141  A    between atoms: _349  and  _350
REMARK  142  A    between atoms: _349  and  _352
REMARK  143  A    between atoms: _352  and  _353
REMARK  144  A    between atoms: _356  and  _358
REMARK  145  A    between atoms: _358  and  _359
REMARK  146  A    between atoms: _362  and  _364
REMARK  147  A    between atoms: _364  and  _365
REMARK  148  A    between atoms: _364  and  _367
REMARK  149  A    between atoms: _367  and  _368
REMARK  150  A    between atoms: _368  and  _482
REMARK  151  A    between atoms: _369  and  _371
REMARK  152  A    between atoms: _371  and  _372
REMARK  153  A    between atoms: _371  and  _374
REMARK  154  A    between atoms: _374  and  _375
REMARK  155  A    between atoms: _375  and  _376
REMARK  156  A    between atoms: _376  and  _377
REMARK  157  A    between atoms: _377  and  _378
REMARK  158  A    between atoms: _382  and  _384
REMARK  159  A    between atoms: _384  and  _385
REMARK  160  A    between atoms: _387  and  _389
REMARK  161  A    between atoms: _389  and  _390
REMARK  162  A    between atoms: _389  and  _392
REMARK  163  A    between atoms: _392  and  _393
REMARK  164  A    between atoms: _396  and  _398
REMARK  165  A    between atoms: _398  and  _399
REMARK  166  A    between atoms: _398  and  _401
REMARK  167  A    between atoms: _401  and  _402
REMARK  168  A    between atoms: _404  and  _406
REMARK  169  A    between atoms: _406  and  _407
REMARK  170  A    between atoms: _409  and  _411
REMARK  171  A    between atoms: _411  and  _412
REMARK  172  A    between atoms: _414  and  _416
REMARK  173  A    between atoms: _416  and  _417
REMARK  174  A    between atoms: _416  and  _419
REMARK  175  A    between atoms: _419  and  _420
REMARK  176  A    between atoms: _423  and  _425
REMARK  177  A    between atoms: _425  and  _426
REMARK  178  A    between atoms: _425  and  _428
REMARK  179  A    between atoms: _428  and  _429
REMARK  180  A    between atoms: _432  and  _434
REMARK  181  A    between atoms: _434  and  _435
REMARK  182  A    between atoms: _434  and  _437
REMARK  183  A    between atoms: _437  and  _438
REMARK  184  A    between atoms: _440  and  _442
REMARK  185  A    between atoms: _442  and  _443
REMARK  186  A    between atoms: _442  and  _445
REMARK  187  A    between atoms: _445  and  _446
REMARK  188  A    between atoms: _456  and  _458
REMARK  189  A    between atoms: _458  and  _459
REMARK  190  A    between atoms: _461  and  _463
REMARK  191  A    between atoms: _463  and  _464
REMARK  192  A    between atoms: _463  and  _466
REMARK  193  A    between atoms: _466  and  _467
REMARK  194  A    between atoms: _467  and  _468
REMARK  195  A    between atoms: _471  and  _473
REMARK  196  A    between atoms: _473  and  _474
REMARK  197  A    between atoms: _476  and  _478
REMARK  198  A    between atoms: _478  and  _479
REMARK  199  A    between atoms: _478  and  _481
REMARK  200  A    between atoms: _481  and  _482
REMARK  201  A    between atoms: _483  and  _485
REMARK  202  A    between atoms: _485  and  _486
REMARK  203  A    between atoms: _489  and  _491
REMARK  204  A    between atoms: _491  and  _492
REMARK  205  A    between atoms: _491  and  _494
REMARK  206  A    between atoms: _494  and  _495
REMARK  207  A    between atoms: _495  and  _496
REMARK  208  A    between atoms: _501  and  _503
REMARK  209  A    between atoms: _503  and  _504
REMARK  210  A    between atoms: _503  and  _506
REMARK  211  A    between atoms: _506  and  _507
REMARK  212  A    between atoms: _507  and  _508
REMARK  213  A    between atoms: _508  and  _509
REMARK  214  A    between atoms: _519  and  _520
REMARK  215  A    between atoms: _525  and  _527
REMARK  216  A    between atoms: _527  and  _528
REMARK  217  A    between atoms: _530  and  _532
REMARK  218  A    between atoms: _532  and  _533
REMARK  219  A    between atoms: _532  and  _535
REMARK  220  A    between atoms: _538  and  _540
REMARK  221  A    between atoms: _540  and  _541
REMARK  222  A    between atoms: _540  and  _543
REMARK  223  A    between atoms: _543  and  _544
REMARK  224  A    between atoms: _549  and  _550
REMARK  225  A    between atoms: _552  and  _554
REMARK  226  A    between atoms: _554  and  _555
REMARK  227  A    between atoms: _554  and  _557
REMARK  228  A    between atoms: _557  and  _558
REMARK                            x       y       z     vdW  Elec       q    Type
REMARK                         _______ _______ _______ _____ _____    ______ ____
ROOT
ATOM      1  O   HOH     1     -49.528 -13.836 -22.227  0.00  0.00    +0.000 OA
ENDROOT
TORSDOF 0
REMARK  Name = ../refined-set-2016/4crc/4crc_pocket.pdb
REMARK  228 active torsions:
REMARK  status: ('A' for Active; 'I' for Inactive)
REMARK    1  A    between atoms: _1  and  _5
REMARK    2  A    between atoms: _5  and  _6
REMARK    3  A    between atoms: _5  and  _8
REMARK    4  A    between atoms: _8  and  _9
REMARK    5  A    between atoms: _12  and  _14
REMARK    6  A    between atoms: _14  and  _15
REMARK    7  A    between atoms: _14  and  _17
REMARK    8  A    between atoms: _20  and  _22
REMARK    9  A    between atoms: _22  and  _23
REMARK   10  A    between atoms: _22  and  _25
REMARK   11  A    between atoms: _25  and  _26
REMARK   12  A    between atoms: _26  and  _27
REMARK   13  A    between atoms: _27  and  _28
REMARK   14  A    between atoms: _37  and  _39
REMARK   15  A    between atoms: _39  and  _40
REMARK   16  A    between atoms: _39  and  _42
REMARK   17  A    between atoms: _42  and  _43
REMARK   18  A    between atoms: _48  and  _50
REMARK   19  A    between atoms: _50  and  _51
REMARK   20  A    between atoms: _50  and  _53
REMARK   21  A    between atoms: _53  and  _54
REMARK   22  A    between atoms: _57  and  _59
REMARK   23  A    between atoms: _59  and  _60
REMARK   24  A    between atoms: _59  and  _62
REMARK   25  A    between atoms: _62  and  _63
REMARK   26  A    between atoms: _63  and  _98
REMARK   27  A    between atoms: _64  and  _66
REMARK   28  A    between atoms: _66  and  _67
REMARK   29  A    between atoms: _69  and  _71
REMARK   30  A    between atoms: _71  and  _72
REMARK   31  A    between atoms: _75  and  _77
REMARK   32  A    between atoms: _77  and  _78
REMARK   33  A    between atoms: _81  and  _83
REMARK   34  A    between atoms: _83  and  _84
REMARK   35  A    between atoms: _83  and  _86
REMARK   36  A    between atoms: _86  and  _87
REMARK   37  A    between atoms: _92  and  _94
REMARK   38  A    between atoms: _94  and  _95
REMARK   39  A    between atoms: _94  and  _97
REMARK   40  A    between atoms: _97  and  _98
REMARK   41  A    between atoms: _99  and  _101
REMARK   42  A    between atoms: _101  and  _102
REMARK   43  A    between atoms: _101  and  _104
REMARK   44  A    between atoms: _104  and  _105
REMARK   45  A    between atoms: _111  and  _113
REMARK   46  A    between atoms: _113  and  _114
REMARK   47  A    between atoms: _113  and  _116
REMARK   48  A    between atoms: _116  and  _117
REMARK   49  A    between atoms: _122  and  _123
REMARK   50  A    between atoms: _125  and  _127
REMARK   51  A    between atoms: _127  and  _128
REMARK   52  A    between atoms: _130  and  _132
REMARK   53  A    between atoms: _132  and  _133
REMARK   54  A    between atoms: _132  and  _135
REMARK   55  A    between atoms: _138  and  _140
REMARK   56  A    between atoms: _140  and  _141
REMARK   57  A    between atoms: _140  and  _143
REMARK   58  A    between atoms: _143  and  _144
REMARK   59  A    between atoms: _149  and  _150
REMARK   60  A    between atoms: _152  and  _154
REMARK   61  A    between atoms: _154  and  _155
REMARK   62  A    between atoms: _158  and  _160
REMARK   63  A    between atoms: _160  and  _161
REMARK   64  A    between atoms: _160  and  _163
REMARK   65  A    between atoms: _163  and  _164
REMARK   66  A    between atoms: _164  and  _165
REMARK   67  A    between atoms: _168  and  _170
REMARK   68  A    between atoms: _170  and  _171
REMARK   69  A    between atoms: _170  and  _173
REMARK   70  A    between atoms: _173  and  _174
REMARK   71  A    between atoms: _177  and  _179
REMARK   72  A    between atoms: _179  and  _180
REMARK   73  A    between atoms: _179  and  _182
REMARK   74  A    between atoms: _185  and  _187
REMARK   75  A    between atoms: _187  and  _188
REMARK   76  A    between atoms: _187  and  _190
REMARK   77  A    between atoms: _190  and  _191
REMARK   78  A    between atoms: _201  and  _203
REMARK   79  A    between atoms: _203  and  _204
REMARK   80  A    between atoms: _206  and  _208
REMARK   81  A    between atoms: _208  and  _209
REMARK   82  A    between atoms: _208  and  _211
REMARK   83  A    between atoms: _211  and  _212
REMARK   84  A    between atoms: _217  and  _218
REMARK   85  A    between atoms: _220  and  _222
REMARK   86  A    between atoms: _222  and  _223
REMARK   87  A    between atoms: _222  and  _225
REMARK   88  A    between atoms: _225  and  _226
REMARK   89  A    between atoms: _226  and  _227
REMARK   90  A    between atoms: _227  and  _228
REMARK   91  A    between atoms: _228  and  _229
REMARK   92  A    between atoms: _233  and  _235
REMARK   93  A    between atoms: _235  and  _236
REMARK   94  A    between atoms: _235  and  _238
REMARK   95  A    between atoms: _238  and  _239
REMARK   96  A    between atoms: _242  and  _244
REMARK   97  A    between atoms: _244  and  _245
REMARK   98  A    between atoms: _244  and  _247
REMARK   99  A    between atoms: _247  and  _248
REMARK  100  A    between atoms: _248  and  _249
REMARK  101  A    between atoms: _249  and  _250
REMARK  102  A    between atoms: _259  and  _261
REMARK  103  A    between atoms: _261  and  _262
REMARK  104  A    between atoms: _261  and  _264
REMARK  105  A    between atoms: _264  and  _265
REMARK  106  A    between atoms: _268  and  _270
REMARK  107  A    between atoms: _270  and  _271
REMARK  108  A    between atoms: _270  and  _273
REMARK  109  A    between atoms: _273  and  _274
REMARK  110  A    between atoms: _274  and  _275
REMARK  111  A    between atoms: _275  and  _276
REMARK  112  A    between atoms: _276  and  _277
REMARK  113  A    between atoms: _281  and  _283
REMARK  114  A    between atoms: _283  and  _284
REMARK  115  A    between atoms: _283  and  _286
REMARK  116  A    between atoms: _286  and  _287
REMARK  117  A    between atoms: _290  and  _292
REMARK  118  A    between atoms: _292  and  _293
REMARK  119  A    between atoms: _292  and  _295
REMARK  120  A    between atoms: _295  and  _296
REMARK  121  A    between atoms: _296  and  _297
REMARK  122  A    between atoms: _302  and  _304
REMARK  123  A    between atoms: _304  and  _305
REMARK  124  A    between atoms: _304  and  _307
REMARK  125  A    between atoms: _307  and  _308
REMARK  126  A    between atoms: _311  and  _313
REMARK  127  A    between atoms: _313  and  _314
REMARK  128  A    between atoms: _313  and  _316
REMARK  129  A    between atoms: _316  and  _317
REMARK  130  A    between atoms: _322  and  _323
REMARK  131  A    between atoms: _325  and  _327
REMARK  132  A    between atoms: _327  and  _328
REMARK  133  A    between atoms: _327  and  _330
REMARK  134  A    between atoms: _330  and  _331
REMARK  135  A    between atoms: _334  and  _336
REMARK  136  A    between atoms: _336  and  _337
REMARK  137  A    between atoms: _336  and  _339
REMARK  138  A    between atoms: _341  and  _343
REMARK  139  A    between atoms: _343  and  _344
REMARK  140  A    between atoms: _347  and  _349
REMARK  141  A    between atoms: _349  and  _350
REMARK  142  A    between atoms: _349  and  _352
REMARK  143  A    between atoms: _352  and  _353
REMARK  144  A    between atoms: _356  and  _358
REMARK  145  A    between atoms: _358  and  _359
REMARK  146  A    between atoms: _362  and  _364
REMARK  147  A    between atoms: _364  and  _365
REMARK  148  A    between atoms: _364  and  _367
REMARK  149  A    between atoms: _367  and  _368
REMARK  150  A    between atoms: _368  and  _482
REMARK  151  A    between atoms: _369  and  _371
REMARK  152  A    between atoms: _371  and  _372
REMARK  153  A    between atoms: _371  and  _374
REMARK  154  A    between atoms: _374  and  _375
REMARK  155  A    between atoms: _375  and  _376
REMARK  156  A    between atoms: _376  and  _377
REMARK  157  A    between atoms: _377  and  _378
REMARK  158  A    between atoms: _382  and  _384
REMARK  159  A    between atoms: _384  and  _385
REMARK  160  A    between atoms: _387  and  _389
REMARK  161  A    between atoms: _389  and  _390
REMARK  162  A    between atoms: _389  and  _392
REMARK  163  A    between atoms: _392  and  _393
REMARK  164  A    between atoms: _396  and  _398
REMARK  165  A    between atoms: _398  and  _399
REMARK  166  A    between atoms: _398  and  _401
REMARK  167  A    between atoms: _401  and  _402
REMARK  168  A    between atoms: _404  and  _406
REMARK  169  A    between atoms: _406  and  _407
REMARK  170  A    between atoms: _409  and  _411
REMARK  171  A    between atoms: _411  and  _412
REMARK  172  A    between atoms: _414  and  _416
REMARK  173  A    between atoms: _416  and  _417
REMARK  174  A    between atoms: _416  and  _419
REMARK  175  A    between atoms: _419  and  _420
REMARK  176  A    between atoms: _423  and  _425
REMARK  177  A    between atoms: _425  and  _426
REMARK  178  A    between atoms: _425  and  _428
REMARK  179  A    between atoms: _428  and  _429
REMARK  180  A    between atoms: _432  and  _434
REMARK  181  A    between atoms: _434  and  _435
REMARK  182  A    between atoms: _434  and  _437
REMARK  183  A    between atoms: _437  and  _438
REMARK  184  A    between atoms: _440  and  _442
REMARK  185  A    between atoms: _442  and  _443
REMARK  186  A    between atoms: _442  and  _445
REMARK  187  A    between atoms: _445  and  _446
REMARK  188  A    between atoms: _456  and  _458
REMARK  189  A    between atoms: _458  and  _459
REMARK  190  A    between atoms: _461  and  _463
REMARK  191  A    between atoms: _463  and  _464
REMARK  192  A    between atoms: _463  and  _466
REMARK  193  A    between atoms: _466  and  _467
REMARK  194  A    between atoms: _467  and  _468
REMARK  195  A    between atoms: _471  and  _473
REMARK  196  A    between atoms: _473  and  _474
REMARK  197  A    between atoms: _476  and  _478
REMARK  198  A    between atoms: _478  and  _479
REMARK  199  A    between atoms: _478  and  _481
REMARK  200  A    between atoms: _481  and  _482
REMARK  201  A    between atoms: _483  and  _485
REMARK  202  A    between atoms: _485  and  _486
REMARK  203  A    between atoms: _489  and  _491
REMARK  204  A    between atoms: _491  and  _492
REMARK  205  A    between atoms: _491  and  _494
REMARK  206  A    between atoms: _494  and  _495
REMARK  207  A    between atoms: _495  and  _496
REMARK  208  A    between atoms: _501  and  _503
REMARK  209  A    between atoms: _503  and  _504
REMARK  210  A    between atoms: _503  and  _506
REMARK  211  A    between atoms: _506  and  _507
REMARK  212  A    between atoms: _507  and  _508
REMARK  213  A    between atoms: _508  and  _509
REMARK  214  A    between atoms: _519  and  _520
REMARK  215  A    between atoms: _525  and  _527
REMARK  216  A    between atoms: _527  and  _528
REMARK  217  A    between atoms: _530  and  _532
REMARK  218  A    between atoms: _532  and  _533
REMARK  219  A    between atoms: _532  and  _535
REMARK  220  A    between atoms: _538  and  _540
REMARK  221  A    between atoms: _540  and  _541
REMARK  222  A    between atoms: _540  and  _543
REMARK  223  A    between atoms: _543  and  _544
REMARK  224  A    between atoms: _549  and  _550
REMARK  225  A    between atoms: _552  and  _554
REMARK  226  A    between atoms: _554  and  _555
REMARK  227  A    between atoms: _554  and  _557
REMARK  228  A    between atoms: _557  and  _558
REMARK                            x       y       z     vdW  Elec       q    Type
REMARK                         _______ _______ _______ _____ _____    ______ ____
ROOT
ATOM      1  O   HOH     1     -50.329 -13.645 -19.236  0.00  0.00    +0.000 OA
ENDROOT
TORSDOF 0
REMARK  Name = ../refined-set-2016/4crc/4crc_pocket.pdb
REMARK  228 active torsions:
REMARK  status: ('A' for Active; 'I' for Inactive)
REMARK    1  A    between atoms: _1  and  _5
REMARK    2  A    between atoms: _5  and  _6
REMARK    3  A    between atoms: _5  and  _8
REMARK    4  A    between atoms: _8  and  _9
REMARK    5  A    between atoms: _12  and  _14
REMARK    6  A    between atoms: _14  and  _15
REMARK    7  A    between atoms: _14  and  _17
REMARK    8  A    between atoms: _20  and  _22
REMARK    9  A    between atoms: _22  and  _23
REMARK   10  A    between atoms: _22  and  _25
REMARK   11  A    between atoms: _25  and  _26
REMARK   12  A    between atoms: _26  and  _27
REMARK   13  A    between atoms: _27  and  _28
REMARK   14  A    between atoms: _37  and  _39
REMARK   15  A    between atoms: _39  and  _40
REMARK   16  A    between atoms: _39  and  _42
REMARK   17  A    between atoms: _42  and  _43
REMARK   18  A    between atoms: _48  and  _50
REMARK   19  A    between atoms: _50  and  _51
REMARK   20  A    between atoms: _50  and  _53
REMARK   21  A    between atoms: _53  and  _54
REMARK   22  A    between atoms: _57  and  _59
REMARK   23  A    between atoms: _59  and  _60
REMARK   24  A    between atoms: _59  and  _62
REMARK   25  A    between atoms: _62  and  _63
REMARK   26  A    between atoms: _63  and  _98
REMARK   27  A    between atoms: _64  and  _66
REMARK   28  A    between atoms: _66  and  _67
REMARK   29  A    between atoms: _69  and  _71
REMARK   30  A    between atoms: _71  and  _72
REMARK   31  A    between atoms: _75  and  _77
REMARK   32  A    between atoms: _77  and  _78
REMARK   33  A    between atoms: _81  and  _83
REMARK   34  A    between atoms: _83  and  _84
REMARK   35  A    between atoms: _83  and  _86
REMARK   36  A    between atoms: _86  and  _87
REMARK   37  A    between atoms: _92  and  _94
REMARK   38  A    between atoms: _94  and  _95
REMARK   39  A    between atoms: _94  and  _97
REMARK   40  A    between atoms: _97  and  _98
REMARK   41  A    between atoms: _99  and  _101
REMARK   42  A    between atoms: _101  and  _102
REMARK   43  A    between atoms: _101  and  _104
REMARK   44  A    between atoms: _104  and  _105
REMARK   45  A    between atoms: _111  and  _113
REMARK   46  A    between atoms: _113  and  _114
REMARK   47  A    between atoms: _113  and  _116
REMARK   48  A    between atoms: _116  and  _117
REMARK   49  A    between atoms: _122  and  _123
REMARK   50  A    between atoms: _125  and  _127
REMARK   51  A    between atoms: _127  and  _128
REMARK   52  A    between atoms: _130  and  _132
REMARK   53  A    between atoms: _132  and  _133
REMARK   54  A    between atoms: _132  and  _135
REMARK   55  A    between atoms: _138  and  _140
REMARK   56  A    between atoms: _140  and  _141
REMARK   57  A    between atoms: _140  and  _143
REMARK   58  A    between atoms: _143  and  _144
REMARK   59  A    between atoms: _149  and  _150
REMARK   60  A    between atoms: _152  and  _154
REMARK   61  A    between atoms: _154  and  _155
REMARK   62  A    between atoms: _158  and  _160
REMARK   63  A    between atoms: _160  and  _161
REMARK   64  A    between atoms: _160  and  _163
REMARK   65  A    between atoms: _163  and  _164
REMARK   66  A    between atoms: _164  and  _165
REMARK   67  A    between atoms: _168  and  _170
REMARK   68  A    between atoms: _170  and  _171
REMARK   69  A    between atoms: _170  and  _173
REMARK   70  A    between atoms: _173  and  _174
REMARK   71  A    between atoms: _177  and  _179
REMARK   72  A    between atoms: _179  and  _180
REMARK   73  A    between atoms: _179  and  _182
REMARK   74  A    between atoms: _185  and  _187
REMARK   75  A    between atoms: _187  and  _188
REMARK   76  A    between atoms: _187  and  _190
REMARK   77  A    between atoms: _190  and  _191
REMARK   78  A    between atoms: _201  and  _203
REMARK   79  A    between atoms: _203  and  _204
REMARK   80  A    between atoms: _206  and  _208
REMARK   81  A    between atoms: _208  and  _209
REMARK   82  A    between atoms: _208  and  _211
REMARK   83  A    between atoms: _211  and  _212
REMARK   84  A    between atoms: _217  and  _218
REMARK   85  A    between atoms: _220  and  _222
REMARK   86  A    between atoms: _222  and  _223
REMARK   87  A    between atoms: _222  and  _225
REMARK   88  A    between atoms: _225  and  _226
REMARK   89  A    between atoms: _226  and  _227
REMARK   90  A    between atoms: _227  and  _228
REMARK   91  A    between atoms: _228  and  _229
REMARK   92  A    between atoms: _233  and  _235
REMARK   93  A    between atoms: _235  and  _236
REMARK   94  A    between atoms: _235  and  _238
REMARK   95  A    between atoms: _238  and  _239
REMARK   96  A    between atoms: _242  and  _244
REMARK   97  A    between atoms: _244  and  _245
REMARK   98  A    between atoms: _244  and  _247
REMARK   99  A    between atoms: _247  and  _248
REMARK  100  A    between atoms: _248  and  _249
REMARK  101  A    between atoms: _249  and  _250
REMARK  102  A    between atoms: _259  and  _261
REMARK  103  A    between atoms: _261  and  _262
REMARK  104  A    between atoms: _261  and  _264
REMARK  105  A    between atoms: _264  and  _265
REMARK  106  A    between atoms: _268  and  _270
REMARK  107  A    between atoms: _270  and  _271
REMARK  108  A    between atoms: _270  and  _273
REMARK  109  A    between atoms: _273  and  _274
REMARK  110  A    between atoms: _274  and  _275
REMARK  111  A    between atoms: _275  and  _276
REMARK  112  A    between atoms: _276  and  _277
REMARK  113  A    between atoms: _281  and  _283
REMARK  114  A    between atoms: _283  and  _284
REMARK  115  A    between atoms: _283  and  _286
REMARK  116  A    between atoms: _286  and  _287
REMARK  117  A    between atoms: _290  and  _292
REMARK  118  A    between atoms: _292  and  _293
REMARK  119  A    between atoms: _292  and  _295
REMARK  120  A    between atoms: _295  and  _296
REMARK  121  A    between atoms: _296  and  _297
REMARK  122  A    between atoms: _302  and  _304
REMARK  123  A    between atoms: _304  and  _305
REMARK  124  A    between atoms: _304  and  _307
REMARK  125  A    between atoms: _307  and  _308
REMARK  126  A    between atoms: _311  and  _313
REMARK  127  A    between atoms: _313  and  _314
REMARK  128  A    between atoms: _313  and  _316
REMARK  129  A    between atoms: _316  and  _317
REMARK  130  A    between atoms: _322  and  _323
REMARK  131  A    between atoms: _325  and  _327
REMARK  132  A    between atoms: _327  and  _328
REMARK  133  A    between atoms: _327  and  _330
REMARK  134  A    between atoms: _330  and  _331
REMARK  135  A    between atoms: _334  and  _336
REMARK  136  A    between atoms: _336  and  _337
REMARK  137  A    between atoms: _336  and  _339
REMARK  138  A    between atoms: _341  and  _343
REMARK  139  A    between atoms: _343  and  _344
REMARK  140  A    between atoms: _347  and  _349
REMARK  141  A    between atoms: _349  and  _350
REMARK  142  A    between atoms: _349  and  _352
REMARK  143  A    between atoms: _352  and  _353
REMARK  144  A    between atoms: _356  and  _358
REMARK  145  A    between atoms: _358  and  _359
REMARK  146  A    between atoms: _362  and  _364
REMARK  147  A    between atoms: _364  and  _365
REMARK  148  A    between atoms: _364  and  _367
REMARK  149  A    between atoms: _367  and  _368
REMARK  150  A    between atoms: _368  and  _482
REMARK  151  A    between atoms: _369  and  _371
REMARK  152  A    between atoms: _371  and  _372
REMARK  153  A    between atoms: _371  and  _374
REMARK  154  A    between atoms: _374  and  _375
REMARK  155  A    between atoms: _375  and  _376
REMARK  156  A    between atoms: _376  and  _377
REMARK  157  A    between atoms: _377  and  _378
REMARK  158  A    between atoms: _382  and  _384
REMARK  159  A    between atoms: _384  and  _385
REMARK  160  A    between atoms: _387  and  _389
REMARK  161  A    between atoms: _389  and  _390
REMARK  162  A    between atoms: _389  and  _392
REMARK  163  A    between atoms: _392  and  _393
REMARK  164  A    between atoms: _396  and  _398
REMARK  165  A    between atoms: _398  and  _399
REMARK  166  A    between atoms: _398  and  _401
REMARK  167  A    between atoms: _401  and  _402
REMARK  168  A    between atoms: _404  and  _406
REMARK  169  A    between atoms: _406  and  _407
REMARK  170  A    between atoms: _409  and  _411
REMARK  171  A    between atoms: _411  and  _412
REMARK  172  A    between atoms: _414  and  _416
REMARK  173  A    between atoms: _416  and  _417
REMARK  174  A    between atoms: _416  and  _419
REMARK  175  A    between atoms: _419  and  _420
REMARK  176  A    between atoms: _423  and  _425
REMARK  177  A    between atoms: _425  and  _426
REMARK  178  A    between atoms: _425  and  _428
REMARK  179  A    between atoms: _428  and  _429
REMARK  180  A    between atoms: _432  and  _434
REMARK  181  A    between atoms: _434  and  _435
REMARK  182  A    between atoms: _434  and  _437
REMARK  183  A    between atoms: _437  and  _438
REMARK  184  A    between atoms: _440  and  _442
REMARK  185  A    between atoms: _442  and  _443
REMARK  186  A    between atoms: _442  and  _445
REMARK  187  A    between atoms: _445  and  _446
REMARK  188  A    between atoms: _456  and  _458
REMARK  189  A    between atoms: _458  and  _459
REMARK  190  A    between atoms: _461  and  _463
REMARK  191  A    between atoms: _463  and  _464
REMARK  192  A    between atoms: _463  and  _466
REMARK  193  A    between atoms: _466  and  _467
REMARK  194  A    between atoms: _467  and  _468
REMARK  195  A    between atoms: _471  and  _473
REMARK  196  A    between atoms: _473  and  _474
REMARK  197  A    between atoms: _476  and  _478
REMARK  198  A    between atoms: _478  and  _479
REMARK  199  A    between atoms: _478  and  _481
REMARK  200  A    between atoms: _481  and  _482
REMARK  201  A    between atoms: _483  and  _485
REMARK  202  A    between atoms: _485  and  _486
REMARK  203  A    between atoms: _489  and  _491
REMARK  204  A    between atoms: _491  and  _492
REMARK  205  A    between atoms: _491  and  _494
REMARK  206  A    between atoms: _494  and  _495
REMARK  207  A    between atoms: _495  and  _496
REMARK  208  A    between atoms: _501  and  _503
REMARK  209  A    between atoms: _503  and  _504
REMARK  210  A    between atoms: _503  and  _506
REMARK  211  A    between atoms: _506  and  _507
REMARK  212  A    between atoms: _507  and  _508
REMARK  213  A    between atoms: _508  and  _509
REMARK  214  A    between atoms: _519  and  _520
REMARK  215  A    between atoms: _525  and  _527
REMARK  216  A    between atoms: _527  and  _528
REMARK  217  A    between atoms: _530  and  _532
REMARK  218  A    between atoms: _532  and  _533
REMARK  219  A    between atoms: _532  and  _535
REMARK  220  A    between atoms: _538  and  _540
REMARK  221  A    between atoms: _540  and  _541
REMARK  222  A    between atoms: _540  and  _543
REMARK  223  A    between atoms: _543  and  _544
REMARK  224  A    between atoms: _549  and  _550
REMARK  225  A    between atoms: _552  and  _554
REMARK  226  A    between atoms: _554  and  _555
REMARK  227  A    between atoms: _554  and  _557
REMARK  228  A    between atoms: _557  and  _558
REMARK                            x       y       z     vdW  Elec       q    Type
REMARK                         _______ _______ _______ _____ _____    ______ ____
ROOT
ATOM      1  O   HOH     1     -53.217 -12.583 -15.490  0.00  0.00    +0.000 OA
ENDROOT
TORSDOF 0
REMARK  Name = ../refined-set-2016/4crc/4crc_pocket.pdb
REMARK  228 active torsions:
REMARK  status: ('A' for Active; 'I' for Inactive)
REMARK    1  A    between atoms: _1  and  _5
REMARK    2  A    between atoms: _5  and  _6
REMARK    3  A    between atoms: _5  and  _8
REMARK    4  A    between atoms: _8  and  _9
REMARK    5  A    between atoms: _12  and  _14
REMARK    6  A    between atoms: _14  and  _15
REMARK    7  A    between atoms: _14  and  _17
REMARK    8  A    between atoms: _20  and  _22
REMARK    9  A    between atoms: _22  and  _23
REMARK   10  A    between atoms: _22  and  _25
REMARK   11  A    between atoms: _25  and  _26
REMARK   12  A    between atoms: _26  and  _27
REMARK   13  A    between atoms: _27  and  _28
REMARK   14  A    between atoms: _37  and  _39
REMARK   15  A    between atoms: _39  and  _40
REMARK   16  A    between atoms: _39  and  _42
REMARK   17  A    between atoms: _42  and  _43
REMARK   18  A    between atoms: _48  and  _50
REMARK   19  A    between atoms: _50  and  _51
REMARK   20  A    between atoms: _50  and  _53
REMARK   21  A    between atoms: _53  and  _54
REMARK   22  A    between atoms: _57  and  _59
REMARK   23  A    between atoms: _59  and  _60
REMARK   24  A    between atoms: _59  and  _62
REMARK   25  A    between atoms: _62  and  _63
REMARK   26  A    between atoms: _63  and  _98
REMARK   27  A    between atoms: _64  and  _66
REMARK   28  A    between atoms: _66  and  _67
REMARK   29  A    between atoms: _69  and  _71
REMARK   30  A    between atoms: _71  and  _72
REMARK   31  A    between atoms: _75  and  _77
REMARK   32  A    between atoms: _77  and  _78
REMARK   33  A    between atoms: _81  and  _83
REMARK   34  A    between atoms: _83  and  _84
REMARK   35  A    between atoms: _83  and  _86
REMARK   36  A    between atoms: _86  and  _87
REMARK   37  A    between atoms: _92  and  _94
REMARK   38  A    between atoms: _94  and  _95
REMARK   39  A    between atoms: _94  and  _97
REMARK   40  A    between atoms: _97  and  _98
REMARK   41  A    between atoms: _99  and  _101
REMARK   42  A    between atoms: _101  and  _102
REMARK   43  A    between atoms: _101  and  _104
REMARK   44  A    between atoms: _104  and  _105
REMARK   45  A    between atoms: _111  and  _113
REMARK   46  A    between atoms: _113  and  _114
REMARK   47  A    between atoms: _113  and  _116
REMARK   48  A    between atoms: _116  and  _117
REMARK   49  A    between atoms: _122  and  _123
REMARK   50  A    between atoms: _125  and  _127
REMARK   51  A    between atoms: _127  and  _128
REMARK   52  A    between atoms: _130  and  _132
REMARK   53  A    between atoms: _132  and  _133
REMARK   54  A    between atoms: _132  and  _135
REMARK   55  A    between atoms: _138  and  _140
REMARK   56  A    between atoms: _140  and  _141
REMARK   57  A    between atoms: _140  and  _143
REMARK   58  A    between atoms: _143  and  _144
REMARK   59  A    between atoms: _149  and  _150
REMARK   60  A    between atoms: _152  and  _154
REMARK   61  A    between atoms: _154  and  _155
REMARK   62  A    between atoms: _158  and  _160
REMARK   63  A    between atoms: _160  and  _161
REMARK   64  A    between atoms: _160  and  _163
REMARK   65  A    between atoms: _163  and  _164
REMARK   66  A    between atoms: _164  and  _165
REMARK   67  A    between atoms: _168  and  _170
REMARK   68  A    between atoms: _170  and  _171
REMARK   69  A    between atoms: _170  and  _173
REMARK   70  A    between atoms: _173  and  _174
REMARK   71  A    between atoms: _177  and  _179
REMARK   72  A    between atoms: _179  and  _180
REMARK   73  A    between atoms: _179  and  _182
REMARK   74  A    between atoms: _185  and  _187
REMARK   75  A    between atoms: _187  and  _188
REMARK   76  A    between atoms: _187  and  _190
REMARK   77  A    between atoms: _190  and  _191
REMARK   78  A    between atoms: _201  and  _203
REMARK   79  A    between atoms: _203  and  _204
REMARK   80  A    between atoms: _206  and  _208
REMARK   81  A    between atoms: _208  and  _209
REMARK   82  A    between atoms: _208  and  _211
REMARK   83  A    between atoms: _211  and  _212
REMARK   84  A    between atoms: _217  and  _218
REMARK   85  A    between atoms: _220  and  _222
REMARK   86  A    between atoms: _222  and  _223
REMARK   87  A    between atoms: _222  and  _225
REMARK   88  A    between atoms: _225  and  _226
REMARK   89  A    between atoms: _226  and  _227
REMARK   90  A    between atoms: _227  and  _228
REMARK   91  A    between atoms: _228  and  _229
REMARK   92  A    between atoms: _233  and  _235
REMARK   93  A    between atoms: _235  and  _236
REMARK   94  A    between atoms: _235  and  _238
REMARK   95  A    between atoms: _238  and  _239
REMARK   96  A    between atoms: _242  and  _244
REMARK   97  A    between atoms: _244  and  _245
REMARK   98  A    between atoms: _244  and  _247
REMARK   99  A    between atoms: _247  and  _248
REMARK  100  A    between atoms: _248  and  _249
REMARK  101  A    between atoms: _249  and  _250
REMARK  102  A    between atoms: _259  and  _261
REMARK  103  A    between atoms: _261  and  _262
REMARK  104  A    between atoms: _261  and  _264
REMARK  105  A    between atoms: _264  and  _265
REMARK  106  A    between atoms: _268  and  _270
REMARK  107  A    between atoms: _270  and  _271
REMARK  108  A    between atoms: _270  and  _273
REMARK  109  A    between atoms: _273  and  _274
REMARK  110  A    between atoms: _274  and  _275
REMARK  111  A    between atoms: _275  and  _276
REMARK  112  A    between atoms: _276  and  _277
REMARK  113  A    between atoms: _281  and  _283
REMARK  114  A    between atoms: _283  and  _284
REMARK  115  A    between atoms: _283  and  _286
REMARK  116  A    between atoms: _286  and  _287
REMARK  117  A    between atoms: _290  and  _292
REMARK  118  A    between atoms: _292  and  _293
REMARK  119  A    between atoms: _292  and  _295
REMARK  120  A    between atoms: _295  and  _296
REMARK  121  A    between atoms: _296  and  _297
REMARK  122  A    between atoms: _302  and  _304
REMARK  123  A    between atoms: _304  and  _305
REMARK  124  A    between atoms: _304  and  _307
REMARK  125  A    between atoms: _307  and  _308
REMARK  126  A    between atoms: _311  and  _313
REMARK  127  A    between atoms: _313  and  _314
REMARK  128  A    between atoms: _313  and  _316
REMARK  129  A    between atoms: _316  and  _317
REMARK  130  A    between atoms: _322  and  _323
REMARK  131  A    between atoms: _325  and  _327
REMARK  132  A    between atoms: _327  and  _328
REMARK  133  A    between atoms: _327  and  _330
REMARK  134  A    between atoms: _330  and  _331
REMARK  135  A    between atoms: _334  and  _336
REMARK  136  A    between atoms: _336  and  _337
REMARK  137  A    between atoms: _336  and  _339
REMARK  138  A    between atoms: _341  and  _343
REMARK  139  A    between atoms: _343  and  _344
REMARK  140  A    between atoms: _347  and  _349
REMARK  141  A    between atoms: _349  and  _350
REMARK  142  A    between atoms: _349  and  _352
REMARK  143  A    between atoms: _352  and  _353
REMARK  144  A    between atoms: _356  and  _358
REMARK  145  A    between atoms: _358  and  _359
REMARK  146  A    between atoms: _362  and  _364
REMARK  147  A    between atoms: _364  and  _365
REMARK  148  A    between atoms: _364  and  _367
REMARK  149  A    between atoms: _367  and  _368
REMARK  150  A    between atoms: _368  and  _482
REMARK  151  A    between atoms: _369  and  _371
REMARK  152  A    between atoms: _371  and  _372
REMARK  153  A    between atoms: _371  and  _374
REMARK  154  A    between atoms: _374  and  _375
REMARK  155  A    between atoms: _375  and  _376
REMARK  156  A    between atoms: _376  and  _377
REMARK  157  A    between atoms: _377  and  _378
REMARK  158  A    between atoms: _382  and  _384
REMARK  159  A    between atoms: _384  and  _385
REMARK  160  A    between atoms: _387  and  _389
REMARK  161  A    between atoms: _389  and  _390
REMARK  162  A    between atoms: _389  and  _392
REMARK  163  A    between atoms: _392  and  _393
REMARK  164  A    between atoms: _396  and  _398
REMARK  165  A    between atoms: _398  and  _399
REMARK  166  A    between atoms: _398  and  _401
REMARK  167  A    between atoms: _401  and  _402
REMARK  168  A    between atoms: _404  and  _406
REMARK  169  A    between atoms: _406  and  _407
REMARK  170  A    between atoms: _409  and  _411
REMARK  171  A    between atoms: _411  and  _412
REMARK  172  A    between atoms: _414  and  _416
REMARK  173  A    between atoms: _416  and  _417
REMARK  174  A    between atoms: _416  and  _419
REMARK  175  A    between atoms: _419  and  _420
REMARK  176  A    between atoms: _423  and  _425
REMARK  177  A    between atoms: _425  and  _426
REMARK  178  A    between atoms: _425  and  _428
REMARK  179  A    between atoms: _428  and  _429
REMARK  180  A    between atoms: _432  and  _434
REMARK  181  A    between atoms: _434  and  _435
REMARK  182  A    between atoms: _434  and  _437
REMARK  183  A    between atoms: _437  and  _438
REMARK  184  A    between atoms: _440  and  _442
REMARK  185  A    between atoms: _442  and  _443
REMARK  186  A    between atoms: _442  and  _445
REMARK  187  A    between atoms: _445  and  _446
REMARK  188  A    between atoms: _456  and  _458
REMARK  189  A    between atoms: _458  and  _459
REMARK  190  A    between atoms: _461  and  _463
REMARK  191  A    between atoms: _463  and  _464
REMARK  192  A    between atoms: _463  and  _466
REMARK  193  A    between atoms: _466  and  _467
REMARK  194  A    between atoms: _467  and  _468
REMARK  195  A    between atoms: _471  and  _473
REMARK  196  A    between atoms: _473  and  _474
REMARK  197  A    between atoms: _476  and  _478
REMARK  198  A    between atoms: _478  and  _479
REMARK  199  A    between atoms: _478  and  _481
REMARK  200  A    between atoms: _481  and  _482
REMARK  201  A    between atoms: _483  and  _485
REMARK  202  A    between atoms: _485  and  _486
REMARK  203  A    between atoms: _489  and  _491
REMARK  204  A    between atoms: _491  and  _492
REMARK  205  A    between atoms: _491  and  _494
REMARK  206  A    between atoms: _494  and  _495
REMARK  207  A    between atoms: _495  and  _496
REMARK  208  A    between atoms: _501  and  _503
REMARK  209  A    between atoms: _503  and  _504
REMARK  210  A    between atoms: _503  and  _506
REMARK  211  A    between atoms: _506  and  _507
REMARK  212  A    between atoms: _507  and  _508
REMARK  213  A    between atoms: _508  and  _509
REMARK  214  A    between atoms: _519  and  _520
REMARK  215  A    between atoms: _525  and  _527
REMARK  216  A    between atoms: _527  and  _528
REMARK  217  A    between atoms: _530  and  _532
REMARK  218  A    between atoms: _532  and  _533
REMARK  219  A    between atoms: _532  and  _535
REMARK  220  A    between atoms: _538  and  _540
REMARK  221  A    between atoms: _540  and  _541
REMARK  222  A    between atoms: _540  and  _543
REMARK  223  A    between atoms: _543  and  _544
REMARK  224  A    between atoms: _549  and  _550
REMARK  225  A    between atoms: _552  and  _554
REMARK  226  A    between atoms: _554  and  _555
REMARK  227  A    between atoms: _554  and  _557
REMARK  228  A    between atoms: _557  and  _558
REMARK                            x       y       z     vdW  Elec       q    Type
REMARK                         _______ _______ _______ _____ _____    ______ ____
ROOT
ATOM      1  O   HOH     1     -52.966  -7.265 -11.889  0.00  0.00    +0.000 OA
ENDROOT
TORSDOF 0
REMARK  Name = ../refined-set-2016/4crc/4crc_pocket.pdb
REMARK  228 active torsions:
REMARK  status: ('A' for Active; 'I' for Inactive)
REMARK    1  A    between atoms: _1  and  _5
REMARK    2  A    between atoms: _5  and  _6
REMARK    3  A    between atoms: _5  and  _8
REMARK    4  A    between atoms: _8  and  _9
REMARK    5  A    between atoms: _12  and  _14
REMARK    6  A    between atoms: _14  and  _15
REMARK    7  A    between atoms: _14  and  _17
REMARK    8  A    between atoms: _20  and  _22
REMARK    9  A    between atoms: _22  and  _23
REMARK   10  A    between atoms: _22  and  _25
REMARK   11  A    between atoms: _25  and  _26
REMARK   12  A    between atoms: _26  and  _27
REMARK   13  A    between atoms: _27  and  _28
REMARK   14  A    between atoms: _37  and  _39
REMARK   15  A    between atoms: _39  and  _40
REMARK   16  A    between atoms: _39  and  _42
REMARK   17  A    between atoms: _42  and  _43
REMARK   18  A    between atoms: _48  and  _50
REMARK   19  A    between atoms: _50  and  _51
REMARK   20  A    between atoms: _50  and  _53
REMARK   21  A    between atoms: _53  and  _54
REMARK   22  A    between atoms: _57  and  _59
REMARK   23  A    between atoms: _59  and  _60
REMARK   24  A    between atoms: _59  and  _62
REMARK   25  A    between atoms: _62  and  _63
REMARK   26  A    between atoms: _63  and  _98
REMARK   27  A    between atoms: _64  and  _66
REMARK   28  A    between atoms: _66  and  _67
REMARK   29  A    between atoms: _69  and  _71
REMARK   30  A    between atoms: _71  and  _72
REMARK   31  A    between atoms: _75  and  _77
REMARK   32  A    between atoms: _77  and  _78
REMARK   33  A    between atoms: _81  and  _83
REMARK   34  A    between atoms: _83  and  _84
REMARK   35  A    between atoms: _83  and  _86
REMARK   36  A    between atoms: _86  and  _87
REMARK   37  A    between atoms: _92  and  _94
REMARK   38  A    between atoms: _94  and  _95
REMARK   39  A    between atoms: _94  and  _97
REMARK   40  A    between atoms: _97  and  _98
REMARK   41  A    between atoms: _99  and  _101
REMARK   42  A    between atoms: _101  and  _102
REMARK   43  A    between atoms: _101  and  _104
REMARK   44  A    between atoms: _104  and  _105
REMARK   45  A    between atoms: _111  and  _113
REMARK   46  A    between atoms: _113  and  _114
REMARK   47  A    between atoms: _113  and  _116
REMARK   48  A    between atoms: _116  and  _117
REMARK   49  A    between atoms: _122  and  _123
REMARK   50  A    between atoms: _125  and  _127
REMARK   51  A    between atoms: _127  and  _128
REMARK   52  A    between atoms: _130  and  _132
REMARK   53  A    between atoms: _132  and  _133
REMARK   54  A    between atoms: _132  and  _135
REMARK   55  A    between atoms: _138  and  _140
REMARK   56  A    between atoms: _140  and  _141
REMARK   57  A    between atoms: _140  and  _143
REMARK   58  A    between atoms: _143  and  _144
REMARK   59  A    between atoms: _149  and  _150
REMARK   60  A    between atoms: _152  and  _154
REMARK   61  A    between atoms: _154  and  _155
REMARK   62  A    between atoms: _158  and  _160
REMARK   63  A    between atoms: _160  and  _161
REMARK   64  A    between atoms: _160  and  _163
REMARK   65  A    between atoms: _163  and  _164
REMARK   66  A    between atoms: _164  and  _165
REMARK   67  A    between atoms: _168  and  _170
REMARK   68  A    between atoms: _170  and  _171
REMARK   69  A    between atoms: _170  and  _173
REMARK   70  A    between atoms: _173  and  _174
REMARK   71  A    between atoms: _177  and  _179
REMARK   72  A    between atoms: _179  and  _180
REMARK   73  A    between atoms: _179  and  _182
REMARK   74  A    between atoms: _185  and  _187
REMARK   75  A    between atoms: _187  and  _188
REMARK   76  A    between atoms: _187  and  _190
REMARK   77  A    between atoms: _190  and  _191
REMARK   78  A    between atoms: _201  and  _203
REMARK   79  A    between atoms: _203  and  _204
REMARK   80  A    between atoms: _206  and  _208
REMARK   81  A    between atoms: _208  and  _209
REMARK   82  A    between atoms: _208  and  _211
REMARK   83  A    between atoms: _211  and  _212
REMARK   84  A    between atoms: _217  and  _218
REMARK   85  A    between atoms: _220  and  _222
REMARK   86  A    between atoms: _222  and  _223
REMARK   87  A    between atoms: _222  and  _225
REMARK   88  A    between atoms: _225  and  _226
REMARK   89  A    between atoms: _226  and  _227
REMARK   90  A    between atoms: _227  and  _228
REMARK   91  A    between atoms: _228  and  _229
REMARK   92  A    between atoms: _233  and  _235
REMARK   93  A    between atoms: _235  and  _236
REMARK   94  A    between atoms: _235  and  _238
REMARK   95  A    between atoms: _238  and  _239
REMARK   96  A    between atoms: _242  and  _244
REMARK   97  A    between atoms: _244  and  _245
REMARK   98  A    between atoms: _244  and  _247
REMARK   99  A    between atoms: _247  and  _248
REMARK  100  A    between atoms: _248  and  _249
REMARK  101  A    between atoms: _249  and  _250
REMARK  102  A    between atoms: _259  and  _261
REMARK  103  A    between atoms: _261  and  _262
REMARK  104  A    between atoms: _261  and  _264
REMARK  105  A    between atoms: _264  and  _265
REMARK  106  A    between atoms: _268  and  _270
REMARK  107  A    between atoms: _270  and  _271
REMARK  108  A    between atoms: _270  and  _273
REMARK  109  A    between atoms: _273  and  _274
REMARK  110  A    between atoms: _274  and  _275
REMARK  111  A    between atoms: _275  and  _276
REMARK  112  A    between atoms: _276  and  _277
REMARK  113  A    between atoms: _281  and  _283
REMARK  114  A    between atoms: _283  and  _284
REMARK  115  A    between atoms: _283  and  _286
REMARK  116  A    between atoms: _286  and  _287
REMARK  117  A    between atoms: _290  and  _292
REMARK  118  A    between atoms: _292  and  _293
REMARK  119  A    between atoms: _292  and  _295
REMARK  120  A    between atoms: _295  and  _296
REMARK  121  A    between atoms: _296  and  _297
REMARK  122  A    between atoms: _302  and  _304
REMARK  123  A    between atoms: _304  and  _305
REMARK  124  A    between atoms: _304  and  _307
REMARK  125  A    between atoms: _307  and  _308
REMARK  126  A    between atoms: _311  and  _313
REMARK  127  A    between atoms: _313  and  _314
REMARK  128  A    between atoms: _313  and  _316
REMARK  129  A    between atoms: _316  and  _317
REMARK  130  A    between atoms: _322  and  _323
REMARK  131  A    between atoms: _325  and  _327
REMARK  132  A    between atoms: _327  and  _328
REMARK  133  A    between atoms: _327  and  _330
REMARK  134  A    between atoms: _330  and  _331
REMARK  135  A    between atoms: _334  and  _336
REMARK  136  A    between atoms: _336  and  _337
REMARK  137  A    between atoms: _336  and  _339
REMARK  138  A    between atoms: _341  and  _343
REMARK  139  A    between atoms: _343  and  _344
REMARK  140  A    between atoms: _347  and  _349
REMARK  141  A    between atoms: _349  and  _350
REMARK  142  A    between atoms: _349  and  _352
REMARK  143  A    between atoms: _352  and  _353
REMARK  144  A    between atoms: _356  and  _358
REMARK  145  A    between atoms: _358  and  _359
REMARK  146  A    between atoms: _362  and  _364
REMARK  147  A    between atoms: _364  and  _365
REMARK  148  A    between atoms: _364  and  _367
REMARK  149  A    between atoms: _367  and  _368
REMARK  150  A    between atoms: _368  and  _482
REMARK  151  A    between atoms: _369  and  _371
REMARK  152  A    between atoms: _371  and  _372
REMARK  153  A    between atoms: _371  and  _374
REMARK  154  A    between atoms: _374  and  _375
REMARK  155  A    between atoms: _375  and  _376
REMARK  156  A    between atoms: _376  and  _377
REMARK  157  A    between atoms: _377  and  _378
REMARK  158  A    between atoms: _382  and  _384
REMARK  159  A    between atoms: _384  and  _385
REMARK  160  A    between atoms: _387  and  _389
REMARK  161  A    between atoms: _389  and  _390
REMARK  162  A    between atoms: _389  and  _392
REMARK  163  A    between atoms: _392  and  _393
REMARK  164  A    between atoms: _396  and  _398
REMARK  165  A    between atoms: _398  and  _399
REMARK  166  A    between atoms: _398  and  _401
REMARK  167  A    between atoms: _401  and  _402
REMARK  168  A    between atoms: _404  and  _406
REMARK  169  A    between atoms: _406  and  _407
REMARK  170  A    between atoms: _409  and  _411
REMARK  171  A    between atoms: _411  and  _412
REMARK  172  A    between atoms: _414  and  _416
REMARK  173  A    between atoms: _416  and  _417
REMARK  174  A    between atoms: _416  and  _419
REMARK  175  A    between atoms: _419  and  _420
REMARK  176  A    between atoms: _423  and  _425
REMARK  177  A    between atoms: _425  and  _426
REMARK  178  A    between atoms: _425  and  _428
REMARK  179  A    between atoms: _428  and  _429
REMARK  180  A    between atoms: _432  and  _434
REMARK  181  A    between atoms: _434  and  _435
REMARK  182  A    between atoms: _434  and  _437
REMARK  183  A    between atoms: _437  and  _438
REMARK  184  A    between atoms: _440  and  _442
REMARK  185  A    between atoms: _442  and  _443
REMARK  186  A    between atoms: _442  and  _445
REMARK  187  A    between atoms: _445  and  _446
REMARK  188  A    between atoms: _456  and  _458
REMARK  189  A    between atoms: _458  and  _459
REMARK  190  A    between atoms: _461  and  _463
REMARK  191  A    between atoms: _463  and  _464
REMARK  192  A    between atoms: _463  and  _466
REMARK  193  A    between atoms: _466  and  _467
REMARK  194  A    between atoms: _467  and  _468
REMARK  195  A    between atoms: _471  and  _473
REMARK  196  A    between atoms: _473  and  _474
REMARK  197  A    between atoms: _476  and  _478
REMARK  198  A    between atoms: _478  and  _479
REMARK  199  A    between atoms: _478  and  _481
REMARK  200  A    between atoms: _481  and  _482
REMARK  201  A    between atoms: _483  and  _485
REMARK  202  A    between atoms: _485  and  _486
REMARK  203  A    between atoms: _489  and  _491
REMARK  204  A    between atoms: _491  and  _492
REMARK  205  A    between atoms: _491  and  _494
REMARK  206  A    between atoms: _494  and  _495
REMARK  207  A    between atoms: _495  and  _496
REMARK  208  A    between atoms: _501  and  _503
REMARK  209  A    between atoms: _503  and  _504
REMARK  210  A    between atoms: _503  and  _506
REMARK  211  A    between atoms: _506  and  _507
REMARK  212  A    between atoms: _507  and  _508
REMARK  213  A    between atoms: _508  and  _509
REMARK  214  A    between atoms: _519  and  _520
REMARK  215  A    between atoms: _525  and  _527
REMARK  216  A    between atoms: _527  and  _528
REMARK  217  A    between atoms: _530  and  _532
REMARK  218  A    between atoms: _532  and  _533
REMARK  219  A    between atoms: _532  and  _535
REMARK  220  A    between atoms: _538  and  _540
REMARK  221  A    between atoms: _540  and  _541
REMARK  222  A    between atoms: _540  and  _543
REMARK  223  A    between atoms: _543  and  _544
REMARK  224  A    between atoms: _549  and  _550
REMARK  225  A    between atoms: _552  and  _554
REMARK  226  A    between atoms: _554  and  _555
REMARK  227  A    between atoms: _554  and  _557
REMARK  228  A    between atoms: _557  and  _558
REMARK                            x       y       z     vdW  Elec       q    Type
REMARK                         _______ _______ _______ _____ _____    ______ ____
ROOT
ATOM      1  O   HOH     1     -44.750  -7.413 -10.688  0.00  0.00    +0.000 OA
ENDROOT
TORSDOF 0
REMARK  Name = ../refined-set-2016/4crc/4crc_pocket.pdb
REMARK  228 active torsions:
REMARK  status: ('A' for Active; 'I' for Inactive)
REMARK    1  A    between atoms: _1  and  _5
REMARK    2  A    between atoms: _5  and  _6
REMARK    3  A    between atoms: _5  and  _8
REMARK    4  A    between atoms: _8  and  _9
REMARK    5  A    between atoms: _12  and  _14
REMARK    6  A    between atoms: _14  and  _15
REMARK    7  A    between atoms: _14  and  _17
REMARK    8  A    between atoms: _20  and  _22
REMARK    9  A    between atoms: _22  and  _23
REMARK   10  A    between atoms: _22  and  _25
REMARK   11  A    between atoms: _25  and  _26
REMARK   12  A    between atoms: _26  and  _27
REMARK   13  A    between atoms: _27  and  _28
REMARK   14  A    between atoms: _37  and  _39
REMARK   15  A    between atoms: _39  and  _40
REMARK   16  A    between atoms: _39  and  _42
REMARK   17  A    between atoms: _42  and  _43
REMARK   18  A    between atoms: _48  and  _50
REMARK   19  A    between atoms: _50  and  _51
REMARK   20  A    between atoms: _50  and  _53
REMARK   21  A    between atoms: _53  and  _54
REMARK   22  A    between atoms: _57  and  _59
REMARK   23  A    between atoms: _59  and  _60
REMARK   24  A    between atoms: _59  and  _62
REMARK   25  A    between atoms: _62  and  _63
REMARK   26  A    between atoms: _63  and  _98
REMARK   27  A    between atoms: _64  and  _66
REMARK   28  A    between atoms: _66  and  _67
REMARK   29  A    between atoms: _69  and  _71
REMARK   30  A    between atoms: _71  and  _72
REMARK   31  A    between atoms: _75  and  _77
REMARK   32  A    between atoms: _77  and  _78
REMARK   33  A    between atoms: _81  and  _83
REMARK   34  A    between atoms: _83  and  _84
REMARK   35  A    between atoms: _83  and  _86
REMARK   36  A    between atoms: _86  and  _87
REMARK   37  A    between atoms: _92  and  _94
REMARK   38  A    between atoms: _94  and  _95
REMARK   39  A    between atoms: _94  and  _97
REMARK   40  A    between atoms: _97  and  _98
REMARK   41  A    between atoms: _99  and  _101
REMARK   42  A    between atoms: _101  and  _102
REMARK   43  A    between atoms: _101  and  _104
REMARK   44  A    between atoms: _104  and  _105
REMARK   45  A    between atoms: _111  and  _113
REMARK   46  A    between atoms: _113  and  _114
REMARK   47  A    between atoms: _113  and  _116
REMARK   48  A    between atoms: _116  and  _117
REMARK   49  A    between atoms: _122  and  _123
REMARK   50  A    between atoms: _125  and  _127
REMARK   51  A    between atoms: _127  and  _128
REMARK   52  A    between atoms: _130  and  _132
REMARK   53  A    between atoms: _132  and  _133
REMARK   54  A    between atoms: _132  and  _135
REMARK   55  A    between atoms: _138  and  _140
REMARK   56  A    between atoms: _140  and  _141
REMARK   57  A    between atoms: _140  and  _143
REMARK   58  A    between atoms: _143  and  _144
REMARK   59  A    between atoms: _149  and  _150
REMARK   60  A    between atoms: _152  and  _154
REMARK   61  A    between atoms: _154  and  _155
REMARK   62  A    between atoms: _158  and  _160
REMARK   63  A    between atoms: _160  and  _161
REMARK   64  A    between atoms: _160  and  _163
REMARK   65  A    between atoms: _163  and  _164
REMARK   66  A    between atoms: _164  and  _165
REMARK   67  A    between atoms: _168  and  _170
REMARK   68  A    between atoms: _170  and  _171
REMARK   69  A    between atoms: _170  and  _173
REMARK   70  A    between atoms: _173  and  _174
REMARK   71  A    between atoms: _177  and  _179
REMARK   72  A    between atoms: _179  and  _180
REMARK   73  A    between atoms: _179  and  _182
REMARK   74  A    between atoms: _185  and  _187
REMARK   75  A    between atoms: _187  and  _188
REMARK   76  A    between atoms: _187  and  _190
REMARK   77  A    between atoms: _190  and  _191
REMARK   78  A    between atoms: _201  and  _203
REMARK   79  A    between atoms: _203  and  _204
REMARK   80  A    between atoms: _206  and  _208
REMARK   81  A    between atoms: _208  and  _209
REMARK   82  A    between atoms: _208  and  _211
REMARK   83  A    between atoms: _211  and  _212
REMARK   84  A    between atoms: _217  and  _218
REMARK   85  A    between atoms: _220  and  _222
REMARK   86  A    between atoms: _222  and  _223
REMARK   87  A    between atoms: _222  and  _225
REMARK   88  A    between atoms: _225  and  _226
REMARK   89  A    between atoms: _226  and  _227
REMARK   90  A    between atoms: _227  and  _228
REMARK   91  A    between atoms: _228  and  _229
REMARK   92  A    between atoms: _233  and  _235
REMARK   93  A    between atoms: _235  and  _236
REMARK   94  A    between atoms: _235  and  _238
REMARK   95  A    between atoms: _238  and  _239
REMARK   96  A    between atoms: _242  and  _244
REMARK   97  A    between atoms: _244  and  _245
REMARK   98  A    between atoms: _244  and  _247
REMARK   99  A    between atoms: _247  and  _248
REMARK  100  A    between atoms: _248  and  _249
REMARK  101  A    between atoms: _249  and  _250
REMARK  102  A    between atoms: _259  and  _261
REMARK  103  A    between atoms: _261  and  _262
REMARK  104  A    between atoms: _261  and  _264
REMARK  105  A    between atoms: _264  and  _265
REMARK  106  A    between atoms: _268  and  _270
REMARK  107  A    between atoms: _270  and  _271
REMARK  108  A    between atoms: _270  and  _273
REMARK  109  A    between atoms: _273  and  _274
REMARK  110  A    between atoms: _274  and  _275
REMARK  111  A    between atoms: _275  and  _276
REMARK  112  A    between atoms: _276  and  _277
REMARK  113  A    between atoms: _281  and  _283
REMARK  114  A    between atoms: _283  and  _284
REMARK  115  A    between atoms: _283  and  _286
REMARK  116  A    between atoms: _286  and  _287
REMARK  117  A    between atoms: _290  and  _292
REMARK  118  A    between atoms: _292  and  _293
REMARK  119  A    between atoms: _292  and  _295
REMARK  120  A    between atoms: _295  and  _296
REMARK  121  A    between atoms: _296  and  _297
REMARK  122  A    between atoms: _302  and  _304
REMARK  123  A    between atoms: _304  and  _305
REMARK  124  A    between atoms: _304  and  _307
REMARK  125  A    between atoms: _307  and  _308
REMARK  126  A    between atoms: _311  and  _313
REMARK  127  A    between atoms: _313  and  _314
REMARK  128  A    between atoms: _313  and  _316
REMARK  129  A    between atoms: _316  and  _317
REMARK  130  A    between atoms: _322  and  _323
REMARK  131  A    between atoms: _325  and  _327
REMARK  132  A    between atoms: _327  and  _328
REMARK  133  A    between atoms: _327  and  _330
REMARK  134  A    between atoms: _330  and  _331
REMARK  135  A    between atoms: _334  and  _336
REMARK  136  A    between atoms: _336  and  _337
REMARK  137  A    between atoms: _336  and  _339
REMARK  138  A    between atoms: _341  and  _343
REMARK  139  A    between atoms: _343  and  _344
REMARK  140  A    between atoms: _347  and  _349
REMARK  141  A    between atoms: _349  and  _350
REMARK  142  A    between atoms: _349  and  _352
REMARK  143  A    between atoms: _352  and  _353
REMARK  144  A    between atoms: _356  and  _358
REMARK  145  A    between atoms: _358  and  _359
REMARK  146  A    between atoms: _362  and  _364
REMARK  147  A    between atoms: _364  and  _365
REMARK  148  A    between atoms: _364  and  _367
REMARK  149  A    between atoms: _367  and  _368
REMARK  150  A    between atoms: _368  and  _482
REMARK  151  A    between atoms: _369  and  _371
REMARK  152  A    between atoms: _371  and  _372
REMARK  153  A    between atoms: _371  and  _374
REMARK  154  A    between atoms: _374  and  _375
REMARK  155  A    between atoms: _375  and  _376
REMARK  156  A    between atoms: _376  and  _377
REMARK  157  A    between atoms: _377  and  _378
REMARK  158  A    between atoms: _382  and  _384
REMARK  159  A    between atoms: _384  and  _385
REMARK  160  A    between atoms: _387  and  _389
REMARK  161  A    between atoms: _389  and  _390
REMARK  162  A    between atoms: _389  and  _392
REMARK  163  A    between atoms: _392  and  _393
REMARK  164  A    between atoms: _396  and  _398
REMARK  165  A    between atoms: _398  and  _399
REMARK  166  A    between atoms: _398  and  _401
REMARK  167  A    between atoms: _401  and  _402
REMARK  168  A    between atoms: _404  and  _406
REMARK  169  A    between atoms: _406  and  _407
REMARK  170  A    between atoms: _409  and  _411
REMARK  171  A    between atoms: _411  and  _412
REMARK  172  A    between atoms: _414  and  _416
REMARK  173  A    between atoms: _416  and  _417
REMARK  174  A    between atoms: _416  and  _419
REMARK  175  A    between atoms: _419  and  _420
REMARK  176  A    between atoms: _423  and  _425
REMARK  177  A    between atoms: _425  and  _426
REMARK  178  A    between atoms: _425  and  _428
REMARK  179  A    between atoms: _428  and  _429
REMARK  180  A    between atoms: _432  and  _434
REMARK  181  A    between atoms: _434  and  _435
REMARK  182  A    between atoms: _434  and  _437
REMARK  183  A    between atoms: _437  and  _438
REMARK  184  A    between atoms: _440  and  _442
REMARK  185  A    between atoms: _442  and  _443
REMARK  186  A    between atoms: _442  and  _445
REMARK  187  A    between atoms: _445  and  _446
REMARK  188  A    between atoms: _456  and  _458
REMARK  189  A    between atoms: _458  and  _459
REMARK  190  A    between atoms: _461  and  _463
REMARK  191  A    between atoms: _463  and  _464
REMARK  192  A    between atoms: _463  and  _466
REMARK  193  A    between atoms: _466  and  _467
REMARK  194  A    between atoms: _467  and  _468
REMARK  195  A    between atoms: _471  and  _473
REMARK  196  A    between atoms: _473  and  _474
REMARK  197  A    between atoms: _476  and  _478
REMARK  198  A    between atoms: _478  and  _479
REMARK  199  A    between atoms: _478  and  _481
REMARK  200  A    between atoms: _481  and  _482
REMARK  201  A    between atoms: _483  and  _485
REMARK  202  A    between atoms: _485  and  _486
REMARK  203  A    between atoms: _489  and  _491
REMARK  204  A    between atoms: _491  and  _492
REMARK  205  A    between atoms: _491  and  _494
REMARK  206  A    between atoms: _494  and  _495
REMARK  207  A    between atoms: _495  and  _496
REMARK  208  A    between atoms: _501  and  _503
REMARK  209  A    between atoms: _503  and  _504
REMARK  210  A    between atoms: _503  and  _506
REMARK  211  A    between atoms: _506  and  _507
REMARK  212  A    between atoms: _507  and  _508
REMARK  213  A    between atoms: _508  and  _509
REMARK  214  A    between atoms: _519  and  _520
REMARK  215  A    between atoms: _525  and  _527
REMARK  216  A    between atoms: _527  and  _528
REMARK  217  A    between atoms: _530  and  _532
REMARK  218  A    between atoms: _532  and  _533
REMARK  219  A    between atoms: _532  and  _535
REMARK  220  A    between atoms: _538  and  _540
REMARK  221  A    between atoms: _540  and  _541
REMARK  222  A    between atoms: _540  and  _543
REMARK  223  A    between atoms: _543  and  _544
REMARK  224  A    between atoms: _549  and  _550
REMARK  225  A    between atoms: _552  and  _554
REMARK  226  A    between atoms: _554  and  _555
REMARK  227  A    between atoms: _554  and  _557
REMARK  228  A    between atoms: _557  and  _558
REMARK                            x       y       z     vdW  Elec       q    Type
REMARK                         _______ _______ _______ _____ _____    ______ ____
ROOT
ATOM      1  O   HOH     1     -53.052 -11.986 -21.108  0.00  0.00    +0.000 OA
ENDROOT
TORSDOF 0
