REMARK  Name = ../refined-set-2016/3slz/3slz_pocket.pdb
REMARK  253 active torsions:
REMARK  status: ('A' for Active; 'I' for Inactive)
REMARK    1  A    between atoms: _2  and  _3
REMARK    2  A    between atoms: _9  and  _10
REMARK    3  A    between atoms: _15  and  _17
REMARK    4  A    between atoms: _17  and  _18
REMARK    5  A    between atoms: _17  and  _20
REMARK    6  A    between atoms: _20  and  _21
REMARK    7  A    between atoms: _24  and  _26
REMARK    8  A    between atoms: _26  and  _27
REMARK    9  A    between atoms: _26  and  _29
REMARK   10  A    between atoms: _32  and  _34
REMARK   11  A    between atoms: _34  and  _35
REMARK   12  A    between atoms: _34  and  _37
REMARK   13  A    between atoms: _37  and  _38
REMARK   14  A    between atoms: _41  and  _43
REMARK   15  A    between atoms: _43  and  _44
REMARK   16  A    between atoms: _43  and  _46
REMARK   17  A    between atoms: _46  and  _47
REMARK   18  A    between atoms: _50  and  _52
REMARK   19  A    between atoms: _52  and  _53
REMARK   20  A    between atoms: _55  and  _57
REMARK   21  A    between atoms: _57  and  _58
REMARK   22  A    between atoms: _61  and  _63
REMARK   23  A    between atoms: _63  and  _64
REMARK   24  A    between atoms: _63  and  _66
REMARK   25  A    between atoms: _66  and  _67
REMARK   26  A    between atoms: _67  and  _68
REMARK   27  A    between atoms: _73  and  _75
REMARK   28  A    between atoms: _75  and  _76
REMARK   29  A    between atoms: _75  and  _78
REMARK   30  A    between atoms: _78  and  _79
REMARK   31  A    between atoms: _84  and  _86
REMARK   32  A    between atoms: _86  and  _87
REMARK   33  A    between atoms: _86  and  _89
REMARK   34  A    between atoms: _89  and  _90
REMARK   35  A    between atoms: _92  and  _94
REMARK   36  A    between atoms: _94  and  _95
REMARK   37  A    between atoms: _94  and  _97
REMARK   38  A    between atoms: _100  and  _102
REMARK   39  A    between atoms: _102  and  _103
REMARK   40  A    between atoms: _102  and  _105
REMARK   41  A    between atoms: _105  and  _106
REMARK   42  A    between atoms: _108  and  _110
REMARK   43  A    between atoms: _110  and  _111
REMARK   44  A    between atoms: _114  and  _116
REMARK   45  A    between atoms: _116  and  _117
REMARK   46  A    between atoms: _116  and  _119
REMARK   47  A    between atoms: _119  and  _120
REMARK   48  A    between atoms: _130  and  _132
REMARK   49  A    between atoms: _132  and  _133
REMARK   50  A    between atoms: _132  and  _135
REMARK   51  A    between atoms: _138  and  _140
REMARK   52  A    between atoms: _140  and  _141
REMARK   53  A    between atoms: _140  and  _143
REMARK   54  A    between atoms: _143  and  _144
REMARK   55  A    between atoms: _144  and  _145
REMARK   56  A    between atoms: _150  and  _152
REMARK   57  A    between atoms: _152  and  _153
REMARK   58  A    between atoms: _155  and  _157
REMARK   59  A    between atoms: _157  and  _158
REMARK   60  A    between atoms: _161  and  _163
REMARK   61  A    between atoms: _163  and  _164
REMARK   62  A    between atoms: _163  and  _166
REMARK   63  A    between atoms: _166  and  _167
REMARK   64  A    between atoms: _170  and  _172
REMARK   65  A    between atoms: _172  and  _173
REMARK   66  A    between atoms: _175  and  _177
REMARK   67  A    between atoms: _177  and  _178
REMARK   68  A    between atoms: _180  and  _182
REMARK   69  A    between atoms: _182  and  _183
REMARK   70  A    between atoms: _182  and  _185
REMARK   71  A    between atoms: _185  and  _186
REMARK   72  A    between atoms: _186  and  _187
REMARK   73  A    between atoms: _187  and  _188
REMARK   74  A    between atoms: _188  and  _189
REMARK   75  A    between atoms: _193  and  _195
REMARK   76  A    between atoms: _195  and  _196
REMARK   77  A    between atoms: _195  and  _198
REMARK   78  A    between atoms: _198  and  _199
REMARK   79  A    between atoms: _204  and  _205
REMARK   80  A    between atoms: _207  and  _209
REMARK   81  A    between atoms: _209  and  _210
REMARK   82  A    between atoms: _209  and  _212
REMARK   83  A    between atoms: _212  and  _213
REMARK   84  A    between atoms: _223  and  _225
REMARK   85  A    between atoms: _225  and  _226
REMARK   86  A    between atoms: _225  and  _228
REMARK   87  A    between atoms: _228  and  _229
REMARK   88  A    between atoms: _232  and  _234
REMARK   89  A    between atoms: _234  and  _235
REMARK   90  A    between atoms: _234  and  _237
REMARK   91  A    between atoms: _240  and  _242
REMARK   92  A    between atoms: _242  and  _243
REMARK   93  A    between atoms: _242  and  _245
REMARK   94  A    between atoms: _245  and  _246
REMARK   95  A    between atoms: _249  and  _251
REMARK   96  A    between atoms: _251  and  _252
REMARK   97  A    between atoms: _251  and  _254
REMARK   98  A    between atoms: _257  and  _258
REMARK   99  A    between atoms: _263  and  _265
REMARK  100  A    between atoms: _265  and  _266
REMARK  101  A    between atoms: _265  and  _268
REMARK  102  A    between atoms: _268  and  _269
REMARK  103  A    between atoms: _274  and  _275
REMARK  104  A    between atoms: _278  and  _279
REMARK  105  A    between atoms: _284  and  _286
REMARK  106  A    between atoms: _286  and  _287
REMARK  107  A    between atoms: _286  and  _289
REMARK  108  A    between atoms: _289  and  _290
REMARK  109  A    between atoms: _293  and  _295
REMARK  110  A    between atoms: _295  and  _296
REMARK  111  A    between atoms: _295  and  _298
REMARK  112  A    between atoms: _298  and  _299
REMARK  113  A    between atoms: _302  and  _304
REMARK  114  A    between atoms: _304  and  _305
REMARK  115  A    between atoms: _307  and  _309
REMARK  116  A    between atoms: _309  and  _310
REMARK  117  A    between atoms: _309  and  _312
REMARK  118  A    between atoms: _312  and  _313
REMARK  119  A    between atoms: _313  and  _314
REMARK  120  A    between atoms: _314  and  _315
REMARK  121  A    between atoms: _325  and  _326
REMARK  122  A    between atoms: _331  and  _333
REMARK  123  A    between atoms: _333  and  _334
REMARK  124  A    between atoms: _333  and  _336
REMARK  125  A    between atoms: _336  and  _337
REMARK  126  A    between atoms: _340  and  _342
REMARK  127  A    between atoms: _342  and  _343
REMARK  128  A    between atoms: _342  and  _345
REMARK  129  A    between atoms: _348  and  _350
REMARK  130  A    between atoms: _350  and  _351
REMARK  131  A    between atoms: _350  and  _353
REMARK  132  A    between atoms: _353  and  _354
REMARK  133  A    between atoms: _357  and  _359
REMARK  134  A    between atoms: _359  and  _360
REMARK  135  A    between atoms: _359  and  _362
REMARK  136  A    between atoms: _362  and  _363
REMARK  137  A    between atoms: _366  and  _368
REMARK  138  A    between atoms: _368  and  _369
REMARK  139  A    between atoms: _371  and  _373
REMARK  140  A    between atoms: _373  and  _374
REMARK  141  A    between atoms: _377  and  _379
REMARK  142  A    between atoms: _379  and  _380
REMARK  143  A    between atoms: _379  and  _382
REMARK  144  A    between atoms: _382  and  _383
REMARK  145  A    between atoms: _383  and  _384
REMARK  146  A    between atoms: _389  and  _391
REMARK  147  A    between atoms: _391  and  _392
REMARK  148  A    between atoms: _391  and  _394
REMARK  149  A    between atoms: _394  and  _395
REMARK  150  A    between atoms: _400  and  _402
REMARK  151  A    between atoms: _402  and  _403
REMARK  152  A    between atoms: _402  and  _405
REMARK  153  A    between atoms: _405  and  _406
REMARK  154  A    between atoms: _408  and  _410
REMARK  155  A    between atoms: _410  and  _411
REMARK  156  A    between atoms: _410  and  _413
REMARK  157  A    between atoms: _416  and  _418
REMARK  158  A    between atoms: _418  and  _419
REMARK  159  A    between atoms: _418  and  _421
REMARK  160  A    between atoms: _421  and  _422
REMARK  161  A    between atoms: _424  and  _426
REMARK  162  A    between atoms: _426  and  _427
REMARK  163  A    between atoms: _430  and  _432
REMARK  164  A    between atoms: _432  and  _433
REMARK  165  A    between atoms: _432  and  _435
REMARK  166  A    between atoms: _435  and  _436
REMARK  167  A    between atoms: _446  and  _448
REMARK  168  A    between atoms: _448  and  _449
REMARK  169  A    between atoms: _448  and  _451
REMARK  170  A    between atoms: _454  and  _456
REMARK  171  A    between atoms: _456  and  _457
REMARK  172  A    between atoms: _456  and  _459
REMARK  173  A    between atoms: _459  and  _460
REMARK  174  A    between atoms: _460  and  _461
REMARK  175  A    between atoms: _466  and  _468
REMARK  176  A    between atoms: _468  and  _469
REMARK  177  A    between atoms: _471  and  _473
REMARK  178  A    between atoms: _473  and  _474
REMARK  179  A    between atoms: _477  and  _479
REMARK  180  A    between atoms: _479  and  _480
REMARK  181  A    between atoms: _479  and  _482
REMARK  182  A    between atoms: _482  and  _483
REMARK  183  A    between atoms: _486  and  _488
REMARK  184  A    between atoms: _488  and  _489
REMARK  185  A    between atoms: _491  and  _493
REMARK  186  A    between atoms: _493  and  _494
REMARK  187  A    between atoms: _496  and  _498
REMARK  188  A    between atoms: _498  and  _499
REMARK  189  A    between atoms: _498  and  _501
REMARK  190  A    between atoms: _501  and  _502
REMARK  191  A    between atoms: _502  and  _503
REMARK  192  A    between atoms: _503  and  _504
REMARK  193  A    between atoms: _504  and  _505
REMARK  194  A    between atoms: _509  and  _511
REMARK  195  A    between atoms: _511  and  _512
REMARK  196  A    between atoms: _511  and  _514
REMARK  197  A    between atoms: _514  and  _515
REMARK  198  A    between atoms: _515  and  _516
REMARK  199  A    between atoms: _516  and  _517
REMARK  200  A    between atoms: _526  and  _528
REMARK  201  A    between atoms: _528  and  _529
REMARK  202  A    between atoms: _528  and  _531
REMARK  203  A    between atoms: _531  and  _532
REMARK  204  A    between atoms: _537  and  _538
REMARK  205  A    between atoms: _540  and  _542
REMARK  206  A    between atoms: _542  and  _543
REMARK  207  A    between atoms: _542  and  _545
REMARK  208  A    between atoms: _545  and  _546
REMARK  209  A    between atoms: _556  and  _558
REMARK  210  A    between atoms: _558  and  _559
REMARK  211  A    between atoms: _558  and  _561
REMARK  212  A    between atoms: _561  and  _562
REMARK  213  A    between atoms: _564  and  _566
REMARK  214  A    between atoms: _566  and  _567
REMARK  215  A    between atoms: _566  and  _569
REMARK  216  A    between atoms: _569  and  _570
REMARK  217  A    between atoms: _573  and  _575
REMARK  218  A    between atoms: _575  and  _576
REMARK  219  A    between atoms: _575  and  _578
REMARK  220  A    between atoms: _581  and  _583
REMARK  221  A    between atoms: _583  and  _584
REMARK  222  A    between atoms: _583  and  _586
REMARK  223  A    between atoms: _586  and  _587
REMARK  224  A    between atoms: _590  and  _592
REMARK  225  A    between atoms: _592  and  _593
REMARK  226  A    between atoms: _592  and  _595
REMARK  227  A    between atoms: _598  and  _599
REMARK  228  A    between atoms: _604  and  _606
REMARK  229  A    between atoms: _606  and  _607
REMARK  230  A    between atoms: _606  and  _609
REMARK  231  A    between atoms: _609  and  _610
REMARK  232  A    between atoms: _615  and  _616
REMARK  233  A    between atoms: _619  and  _620
REMARK  234  A    between atoms: _625  and  _627
REMARK  235  A    between atoms: _627  and  _628
REMARK  236  A    between atoms: _627  and  _630
REMARK  237  A    between atoms: _630  and  _631
REMARK  238  A    between atoms: _634  and  _636
REMARK  239  A    between atoms: _636  and  _637
REMARK  240  A    between atoms: _636  and  _639
REMARK  241  A    between atoms: _639  and  _640
REMARK  242  A    between atoms: _643  and  _645
REMARK  243  A    between atoms: _645  and  _646
REMARK  244  A    between atoms: _648  and  _650
REMARK  245  A    between atoms: _650  and  _651
REMARK  246  A    between atoms: _650  and  _653
REMARK  247  A    between atoms: _653  and  _654
REMARK  248  A    between atoms: _654  and  _655
REMARK  249  A    between atoms: _655  and  _656
REMARK  250  A    between atoms: _665  and  _667
REMARK  251  A    between atoms: _667  and  _668
REMARK  252  A    between atoms: _667  and  _670
REMARK  253  A    between atoms: _670  and  _671
REMARK                            x       y       z     vdW  Elec       q    Type
REMARK                         _______ _______ _______ _____ _____    ______ ____
ROOT
ATOM      1  C   PRO A   1     -13.027  -4.797   3.409  0.00  0.00    +0.242 C 
ATOM      2  O   PRO A   1     -13.466  -5.798   2.833  0.00  0.00    -0.273 OA
ATOM      3  N   PRO A   2     -12.175  -3.976   2.799  0.00  0.00    -0.273 N 
ATOM      4  CD  PRO A   2     -11.613  -2.722   3.338  0.00  0.00    +0.094 C 
ATOM      5  CG  PRO A   2     -10.551  -2.386   2.334  0.00  0.00    +0.024 C 
ATOM      6  CB  PRO A   2     -10.793  -3.094   1.120  0.00  0.00    +0.030 C 
ATOM      7  CA  PRO A   2     -11.544  -4.366   1.545  0.00  0.00    +0.140 C 
ENDROOT
BRANCH   1  12
ATOM      8  N   PRO A   1     -14.768  -5.026   5.196  0.00  0.00    -0.210 NA
ATOM      9  CD  PRO A   1     -14.652  -6.115   6.180  0.00  0.00    +0.089 C 
ATOM     10  CG  PRO A   1     -13.194  -6.410   6.188  0.00  0.00    +0.021 C 
ATOM     11  CB  PRO A   1     -12.511  -5.099   5.854  0.00  0.00    +0.028 C 
ATOM     12  CA  PRO A   1     -13.460  -4.447   4.836  0.00  0.00    +0.149 C 
ENDBRANCH   1  12
BRANCH   7  13
ATOM     13  C   PRO A   2     -10.528  -5.514   1.681  0.00  0.00    +0.227 C 
ATOM     14  O   PRO A   2     -10.154  -5.849   2.812  0.00  0.00    -0.286 OA
ENDBRANCH   7  13
TORSDOF 2
REMARK  Name = ../refined-set-2016/3slz/3slz_pocket.pdb
REMARK  253 active torsions:
REMARK  status: ('A' for Active; 'I' for Inactive)
REMARK    1  A    between atoms: _2  and  _3
REMARK    2  A    between atoms: _9  and  _10
REMARK    3  A    between atoms: _15  and  _17
REMARK    4  A    between atoms: _17  and  _18
REMARK    5  A    between atoms: _17  and  _20
REMARK    6  A    between atoms: _20  and  _21
REMARK    7  A    between atoms: _24  and  _26
REMARK    8  A    between atoms: _26  and  _27
REMARK    9  A    between atoms: _26  and  _29
REMARK   10  A    between atoms: _32  and  _34
REMARK   11  A    between atoms: _34  and  _35
REMARK   12  A    between atoms: _34  and  _37
REMARK   13  A    between atoms: _37  and  _38
REMARK   14  A    between atoms: _41  and  _43
REMARK   15  A    between atoms: _43  and  _44
REMARK   16  A    between atoms: _43  and  _46
REMARK   17  A    between atoms: _46  and  _47
REMARK   18  A    between atoms: _50  and  _52
REMARK   19  A    between atoms: _52  and  _53
REMARK   20  A    between atoms: _55  and  _57
REMARK   21  A    between atoms: _57  and  _58
REMARK   22  A    between atoms: _61  and  _63
REMARK   23  A    between atoms: _63  and  _64
REMARK   24  A    between atoms: _63  and  _66
REMARK   25  A    between atoms: _66  and  _67
REMARK   26  A    between atoms: _67  and  _68
REMARK   27  A    between atoms: _73  and  _75
REMARK   28  A    between atoms: _75  and  _76
REMARK   29  A    between atoms: _75  and  _78
REMARK   30  A    between atoms: _78  and  _79
REMARK   31  A    between atoms: _84  and  _86
REMARK   32  A    between atoms: _86  and  _87
REMARK   33  A    between atoms: _86  and  _89
REMARK   34  A    between atoms: _89  and  _90
REMARK   35  A    between atoms: _92  and  _94
REMARK   36  A    between atoms: _94  and  _95
REMARK   37  A    between atoms: _94  and  _97
REMARK   38  A    between atoms: _100  and  _102
REMARK   39  A    between atoms: _102  and  _103
REMARK   40  A    between atoms: _102  and  _105
REMARK   41  A    between atoms: _105  and  _106
REMARK   42  A    between atoms: _108  and  _110
REMARK   43  A    between atoms: _110  and  _111
REMARK   44  A    between atoms: _114  and  _116
REMARK   45  A    between atoms: _116  and  _117
REMARK   46  A    between atoms: _116  and  _119
REMARK   47  A    between atoms: _119  and  _120
REMARK   48  A    between atoms: _130  and  _132
REMARK   49  A    between atoms: _132  and  _133
REMARK   50  A    between atoms: _132  and  _135
REMARK   51  A    between atoms: _138  and  _140
REMARK   52  A    between atoms: _140  and  _141
REMARK   53  A    between atoms: _140  and  _143
REMARK   54  A    between atoms: _143  and  _144
REMARK   55  A    between atoms: _144  and  _145
REMARK   56  A    between atoms: _150  and  _152
REMARK   57  A    between atoms: _152  and  _153
REMARK   58  A    between atoms: _155  and  _157
REMARK   59  A    between atoms: _157  and  _158
REMARK   60  A    between atoms: _161  and  _163
REMARK   61  A    between atoms: _163  and  _164
REMARK   62  A    between atoms: _163  and  _166
REMARK   63  A    between atoms: _166  and  _167
REMARK   64  A    between atoms: _170  and  _172
REMARK   65  A    between atoms: _172  and  _173
REMARK   66  A    between atoms: _175  and  _177
REMARK   67  A    between atoms: _177  and  _178
REMARK   68  A    between atoms: _180  and  _182
REMARK   69  A    between atoms: _182  and  _183
REMARK   70  A    between atoms: _182  and  _185
REMARK   71  A    between atoms: _185  and  _186
REMARK   72  A    between atoms: _186  and  _187
REMARK   73  A    between atoms: _187  and  _188
REMARK   74  A    between atoms: _188  and  _189
REMARK   75  A    between atoms: _193  and  _195
REMARK   76  A    between atoms: _195  and  _196
REMARK   77  A    between atoms: _195  and  _198
REMARK   78  A    between atoms: _198  and  _199
REMARK   79  A    between atoms: _204  and  _205
REMARK   80  A    between atoms: _207  and  _209
REMARK   81  A    between atoms: _209  and  _210
REMARK   82  A    between atoms: _209  and  _212
REMARK   83  A    between atoms: _212  and  _213
REMARK   84  A    between atoms: _223  and  _225
REMARK   85  A    between atoms: _225  and  _226
REMARK   86  A    between atoms: _225  and  _228
REMARK   87  A    between atoms: _228  and  _229
REMARK   88  A    between atoms: _232  and  _234
REMARK   89  A    between atoms: _234  and  _235
REMARK   90  A    between atoms: _234  and  _237
REMARK   91  A    between atoms: _240  and  _242
REMARK   92  A    between atoms: _242  and  _243
REMARK   93  A    between atoms: _242  and  _245
REMARK   94  A    between atoms: _245  and  _246
REMARK   95  A    between atoms: _249  and  _251
REMARK   96  A    between atoms: _251  and  _252
REMARK   97  A    between atoms: _251  and  _254
REMARK   98  A    between atoms: _257  and  _258
REMARK   99  A    between atoms: _263  and  _265
REMARK  100  A    between atoms: _265  and  _266
REMARK  101  A    between atoms: _265  and  _268
REMARK  102  A    between atoms: _268  and  _269
REMARK  103  A    between atoms: _274  and  _275
REMARK  104  A    between atoms: _278  and  _279
REMARK  105  A    between atoms: _284  and  _286
REMARK  106  A    between atoms: _286  and  _287
REMARK  107  A    between atoms: _286  and  _289
REMARK  108  A    between atoms: _289  and  _290
REMARK  109  A    between atoms: _293  and  _295
REMARK  110  A    between atoms: _295  and  _296
REMARK  111  A    between atoms: _295  and  _298
REMARK  112  A    between atoms: _298  and  _299
REMARK  113  A    between atoms: _302  and  _304
REMARK  114  A    between atoms: _304  and  _305
REMARK  115  A    between atoms: _307  and  _309
REMARK  116  A    between atoms: _309  and  _310
REMARK  117  A    between atoms: _309  and  _312
REMARK  118  A    between atoms: _312  and  _313
REMARK  119  A    between atoms: _313  and  _314
REMARK  120  A    between atoms: _314  and  _315
REMARK  121  A    between atoms: _325  and  _326
REMARK  122  A    between atoms: _331  and  _333
REMARK  123  A    between atoms: _333  and  _334
REMARK  124  A    between atoms: _333  and  _336
REMARK  125  A    between atoms: _336  and  _337
REMARK  126  A    between atoms: _340  and  _342
REMARK  127  A    between atoms: _342  and  _343
REMARK  128  A    between atoms: _342  and  _345
REMARK  129  A    between atoms: _348  and  _350
REMARK  130  A    between atoms: _350  and  _351
REMARK  131  A    between atoms: _350  and  _353
REMARK  132  A    between atoms: _353  and  _354
REMARK  133  A    between atoms: _357  and  _359
REMARK  134  A    between atoms: _359  and  _360
REMARK  135  A    between atoms: _359  and  _362
REMARK  136  A    between atoms: _362  and  _363
REMARK  137  A    between atoms: _366  and  _368
REMARK  138  A    between atoms: _368  and  _369
REMARK  139  A    between atoms: _371  and  _373
REMARK  140  A    between atoms: _373  and  _374
REMARK  141  A    between atoms: _377  and  _379
REMARK  142  A    between atoms: _379  and  _380
REMARK  143  A    between atoms: _379  and  _382
REMARK  144  A    between atoms: _382  and  _383
REMARK  145  A    between atoms: _383  and  _384
REMARK  146  A    between atoms: _389  and  _391
REMARK  147  A    between atoms: _391  and  _392
REMARK  148  A    between atoms: _391  and  _394
REMARK  149  A    between atoms: _394  and  _395
REMARK  150  A    between atoms: _400  and  _402
REMARK  151  A    between atoms: _402  and  _403
REMARK  152  A    between atoms: _402  and  _405
REMARK  153  A    between atoms: _405  and  _406
REMARK  154  A    between atoms: _408  and  _410
REMARK  155  A    between atoms: _410  and  _411
REMARK  156  A    between atoms: _410  and  _413
REMARK  157  A    between atoms: _416  and  _418
REMARK  158  A    between atoms: _418  and  _419
REMARK  159  A    between atoms: _418  and  _421
REMARK  160  A    between atoms: _421  and  _422
REMARK  161  A    between atoms: _424  and  _426
REMARK  162  A    between atoms: _426  and  _427
REMARK  163  A    between atoms: _430  and  _432
REMARK  164  A    between atoms: _432  and  _433
REMARK  165  A    between atoms: _432  and  _435
REMARK  166  A    between atoms: _435  and  _436
REMARK  167  A    between atoms: _446  and  _448
REMARK  168  A    between atoms: _448  and  _449
REMARK  169  A    between atoms: _448  and  _451
REMARK  170  A    between atoms: _454  and  _456
REMARK  171  A    between atoms: _456  and  _457
REMARK  172  A    between atoms: _456  and  _459
REMARK  173  A    between atoms: _459  and  _460
REMARK  174  A    between atoms: _460  and  _461
REMARK  175  A    between atoms: _466  and  _468
REMARK  176  A    between atoms: _468  and  _469
REMARK  177  A    between atoms: _471  and  _473
REMARK  178  A    between atoms: _473  and  _474
REMARK  179  A    between atoms: _477  and  _479
REMARK  180  A    between atoms: _479  and  _480
REMARK  181  A    between atoms: _479  and  _482
REMARK  182  A    between atoms: _482  and  _483
REMARK  183  A    between atoms: _486  and  _488
REMARK  184  A    between atoms: _488  and  _489
REMARK  185  A    between atoms: _491  and  _493
REMARK  186  A    between atoms: _493  and  _494
REMARK  187  A    between atoms: _496  and  _498
REMARK  188  A    between atoms: _498  and  _499
REMARK  189  A    between atoms: _498  and  _501
REMARK  190  A    between atoms: _501  and  _502
REMARK  191  A    between atoms: _502  and  _503
REMARK  192  A    between atoms: _503  and  _504
REMARK  193  A    between atoms: _504  and  _505
REMARK  194  A    between atoms: _509  and  _511
REMARK  195  A    between atoms: _511  and  _512
REMARK  196  A    between atoms: _511  and  _514
REMARK  197  A    between atoms: _514  and  _515
REMARK  198  A    between atoms: _515  and  _516
REMARK  199  A    between atoms: _516  and  _517
REMARK  200  A    between atoms: _526  and  _528
REMARK  201  A    between atoms: _528  and  _529
REMARK  202  A    between atoms: _528  and  _531
REMARK  203  A    between atoms: _531  and  _532
REMARK  204  A    between atoms: _537  and  _538
REMARK  205  A    between atoms: _540  and  _542
REMARK  206  A    between atoms: _542  and  _543
REMARK  207  A    between atoms: _542  and  _545
REMARK  208  A    between atoms: _545  and  _546
REMARK  209  A    between atoms: _556  and  _558
REMARK  210  A    between atoms: _558  and  _559
REMARK  211  A    between atoms: _558  and  _561
REMARK  212  A    between atoms: _561  and  _562
REMARK  213  A    between atoms: _564  and  _566
REMARK  214  A    between atoms: _566  and  _567
REMARK  215  A    between atoms: _566  and  _569
REMARK  216  A    between atoms: _569  and  _570
REMARK  217  A    between atoms: _573  and  _575
REMARK  218  A    between atoms: _575  and  _576
REMARK  219  A    between atoms: _575  and  _578
REMARK  220  A    between atoms: _581  and  _583
REMARK  221  A    between atoms: _583  and  _584
REMARK  222  A    between atoms: _583  and  _586
REMARK  223  A    between atoms: _586  and  _587
REMARK  224  A    between atoms: _590  and  _592
REMARK  225  A    between atoms: _592  and  _593
REMARK  226  A    between atoms: _592  and  _595
REMARK  227  A    between atoms: _598  and  _599
REMARK  228  A    between atoms: _604  and  _606
REMARK  229  A    between atoms: _606  and  _607
REMARK  230  A    between atoms: _606  and  _609
REMARK  231  A    between atoms: _609  and  _610
REMARK  232  A    between atoms: _615  and  _616
REMARK  233  A    between atoms: _619  and  _620
REMARK  234  A    between atoms: _625  and  _627
REMARK  235  A    between atoms: _627  and  _628
REMARK  236  A    between atoms: _627  and  _630
REMARK  237  A    between atoms: _630  and  _631
REMARK  238  A    between atoms: _634  and  _636
REMARK  239  A    between atoms: _636  and  _637
REMARK  240  A    between atoms: _636  and  _639
REMARK  241  A    between atoms: _639  and  _640
REMARK  242  A    between atoms: _643  and  _645
REMARK  243  A    between atoms: _645  and  _646
REMARK  244  A    between atoms: _648  and  _650
REMARK  245  A    between atoms: _650  and  _651
REMARK  246  A    between atoms: _650  and  _653
REMARK  247  A    between atoms: _653  and  _654
REMARK  248  A    between atoms: _654  and  _655
REMARK  249  A    between atoms: _655  and  _656
REMARK  250  A    between atoms: _665  and  _667
REMARK  251  A    between atoms: _667  and  _668
REMARK  252  A    between atoms: _667  and  _670
REMARK  253  A    between atoms: _670  and  _671
REMARK                            x       y       z     vdW  Elec       q    Type
REMARK                         _______ _______ _______ _____ _____    ______ ____
ROOT
ATOM      1  CA  ALA A   6      -1.585  -1.757  12.822  0.00  0.00    +0.149 C 
ATOM      2  CB  ALA A   6      -2.957  -2.360  12.866  0.00  0.00    +0.031 C 
ENDROOT
BRANCH   1   5
ATOM      3  C   GLY A   5      -0.406  -0.757  10.968  0.00  0.00    +0.243 C 
ATOM      4  O   GLY A   5      -0.318   0.317  11.627  0.00  0.00    -0.273 OA
ATOM      5  N   ALA A   6      -1.015  -1.800  11.480  0.00  0.00    -0.297 N 
ATOM      6  H   ALA A   6      -1.093  -2.673  10.919  0.00  0.00    +0.150 HD
BRANCH   3   7
ATOM      7  CA  GLY A   5       0.174  -0.882   9.572  0.00  0.00    +0.176 C 
BRANCH   7  10
ATOM      8  C   THR A   4       0.716  -3.196   8.968  0.00  0.00    +0.243 C 
ATOM      9  O   THR A   4       1.778  -3.159   9.555  0.00  0.00    -0.273 OA
ATOM     10  N   GLY A   5      -0.124  -2.157   8.880  0.00  0.00    -0.295 N 
ATOM     11  H   GLY A   5      -0.995  -2.246   8.319  0.00  0.00    +0.150 HD
BRANCH   8  12
ATOM     12  CA  THR A   4       0.251  -4.510   8.336  0.00  0.00    +0.176 C 
BRANCH  12  15
ATOM     13  C   ASP A   3      -2.077  -4.485   8.912  0.00  0.00    +0.241 C 
ATOM     14  O   ASP A   3      -1.807  -4.462  10.122  0.00  0.00    -0.273 OA
ATOM     15  N   THR A   4      -1.150  -4.456   7.965  0.00  0.00    -0.295 N 
ATOM     16  H   THR A   4      -1.425  -4.395   6.964  0.00  0.00    +0.150 HD
BRANCH  13  17
ATOM     17  CA  ASP A   3      -3.494  -4.478   8.406  0.00  0.00    +0.160 C 
BRANCH  17  19
ATOM     18  C   VAL A   2      -4.629  -6.262   7.157  0.00  0.00    +0.241 C 
ATOM     19  N   ASP A   3      -4.045  -5.822   8.271  0.00  0.00    -0.297 N 
ATOM     20  H   ASP A   3      -3.979  -6.468   9.083  0.00  0.00    +0.150 HD
ATOM     21  O   VAL A   2      -4.573  -5.653   6.060  0.00  0.00    -0.273 OA
BRANCH  18  22
ATOM     22  CA  VAL A   2      -5.468  -7.542   7.339  0.00  0.00    +0.148 C 
BRANCH  22  25
ATOM     23  C   LEU A   1      -7.593  -6.447   7.804  0.00  0.00    +0.238 C 
ATOM     24  O   LEU A   1      -7.243  -6.176   8.968  0.00  0.00    -0.274 OA
ATOM     25  N   VAL A   2      -6.841  -7.161   6.980  0.00  0.00    -0.297 N 
ATOM     26  H   VAL A   2      -7.229  -7.457   6.062  0.00  0.00    +0.150 HD
BRANCH  23  27
ATOM     27  CA  LEU A   1      -8.960  -5.989   7.307  0.00  0.00    +0.145 C 
BRANCH  27  28
ATOM     28  N   LEU A   1      -9.963  -6.460   8.277  0.00  0.00    -0.238 NA
ATOM     29  H   LEU A   1     -10.417  -5.778   8.918  0.00  0.00    +0.142 HD
ENDBRANCH  27  28
BRANCH  27  30
ATOM     30  CB  LEU A   1      -8.995  -4.452   7.253  0.00  0.00    +0.026 C 
BRANCH  30  31
ATOM     31  CG  LEU A   1      -7.899  -3.817   6.383  0.00  0.00    +0.002 C 
ATOM     32  CD2 LEU A   1      -8.042  -2.313   6.447  0.00  0.00    +0.000 C 
ATOM     33  CD1 LEU A   1      -7.967  -4.259   4.949  0.00  0.00    +0.000 C 
ENDBRANCH  30  31
ENDBRANCH  27  30
ENDBRANCH  23  27
ENDBRANCH  22  25
BRANCH  22  34
ATOM     34  CB  VAL A   2      -4.991  -8.622   6.393  0.00  0.00    +0.027 C 
ATOM     35  CG2 VAL A   2      -5.738  -9.916   6.643  0.00  0.00    +0.002 C 
ATOM     36  CG1 VAL A   2      -3.491  -8.827   6.504  0.00  0.00    +0.002 C 
ENDBRANCH  22  34
ENDBRANCH  18  22
ENDBRANCH  17  19
BRANCH  17  37
ATOM     37  CB  ASP A   3      -4.400  -3.694   9.340  0.00  0.00    +0.143 C 
BRANCH  37  38
ATOM     38  CG  ASP A   3      -4.042  -2.269   9.356  0.00  0.00    +0.367 C 
ATOM     39  OD2 ASP A   3      -4.764  -1.510  10.067  0.00  0.00    -0.246 OA
ATOM     40  OD1 ASP A   3      -3.080  -1.817   8.713  0.00  0.00    -0.246 OA
ENDBRANCH  37  38
ENDBRANCH  17  37
ENDBRANCH  13  17
ENDBRANCH  12  15
BRANCH  12  41
ATOM     41  CB  THR A   4       1.159  -4.861   7.149  0.00  0.00    +0.137 C 
ATOM     42  CG2 THR A   4       0.806  -6.220   6.583  0.00  0.00    +0.034 C 
BRANCH  41  43
ATOM     43  OG1 THR A   4       0.971  -3.864   6.120  0.00  0.00    -0.382 OA
ATOM     44  HG1 THR A   4       1.210  -2.973   6.478  0.00  0.00    +0.210 HD
ENDBRANCH  41  43
ENDBRANCH  12  41
ENDBRANCH   8  12
ENDBRANCH   7  10
ENDBRANCH   3   7
ENDBRANCH   1   5
BRANCH   1  45
ATOM     45  C   ALA A   6      -0.649  -2.498  13.774  0.00  0.00    +0.241 C 
ATOM     46  N   GLN A   7      -0.107  -1.810  14.781  0.00  0.00    -0.297 N 
ATOM     47  H   GLN A   7      -0.308  -0.794  14.881  0.00  0.00    +0.150 HD
ATOM     48  O   ALA A   6      -0.370  -3.701  13.560  0.00  0.00    -0.273 OA
BRANCH  46  49
ATOM     49  CA  GLN A   7       0.752  -2.465  15.728  0.00  0.00    +0.149 C 
BRANCH  49  50
ATOM     50  C   GLN A   7      -0.010  -3.510  16.538  0.00  0.00    +0.241 C 
ATOM     51  O   GLN A   7       0.594  -4.509  16.936  0.00  0.00    -0.273 OA
ATOM     52  N   UNK A   8      -1.281  -3.245  16.833  0.00  0.00    -0.297 N 
ATOM     53  H   UNK A   8      -1.698  -2.354  16.496  0.00  0.00    +0.150 HD
BRANCH  52  54
ATOM     54  C   UNK A   8      -2.113  -4.162  17.614  0.00  0.00    +0.154 C 
BRANCH  54  55
ATOM     55  C   UNK A   8      -3.440  -4.289  16.930  0.00  0.00    +0.241 C 
ATOM     56  N   SER A   9      -4.118  -5.407  17.153  0.00  0.00    -0.295 N 
ATOM     57  H   SER A   9      -3.736  -6.102  17.826  0.00  0.00    +0.150 HD
ATOM     58  O   UNK A   8      -3.857  -3.377  16.210  0.00  0.00    -0.273 OA
BRANCH  56  59
ATOM     59  CA  SER A   9      -5.381  -5.693  16.486  0.00  0.00    +0.178 C 
BRANCH  59  60
ATOM     60  C   SER A   9      -6.544  -5.046  17.201  0.00  0.00    +0.243 C 
ATOM     61  O   SER A   9      -6.486  -4.720  18.439  0.00  0.00    -0.273 OA
ATOM     62  N   VAL A  10      -7.592  -4.813  16.416  0.00  0.00    -0.298 N 
ATOM     63  H   VAL A  10      -7.650  -5.273  15.485  0.00  0.00    +0.150 HD
BRANCH  62  64
ATOM     64  CA  VAL A  10      -8.671  -3.911  16.852  0.00  0.00    +0.137 C 
BRANCH  64  65
ATOM     65  CB  VAL A  10      -8.579  -2.610  16.024  0.00  0.00    +0.026 C 
ATOM     66  CG2 VAL A  10      -7.329  -1.841  16.416  0.00  0.00    +0.002 C 
ATOM     67  CG1 VAL A  10      -9.847  -1.760  16.102  0.00  0.00    +0.002 C 
ENDBRANCH  64  65
BRANCH  64  68
ATOM     68  C   VAL A  10     -10.033  -4.587  16.588  0.00  0.00    +0.227 C 
ATOM     69  O   VAL A  10     -10.245  -5.158  15.485  0.00  0.00    -0.286 OA
ENDBRANCH  64  68
ENDBRANCH  62  64
ENDBRANCH  59  60
BRANCH  59  70
ATOM     70  CB  SER A   9      -5.585  -7.217  16.412  0.00  0.00    +0.166 C 
BRANCH  70  71
ATOM     71  OG  SER A   9      -4.574  -7.817  15.596  0.00  0.00    -0.380 OA
ATOM     72  H   SER A   9      -3.683  -7.629  15.985  0.00  0.00    +0.211 HD
ENDBRANCH  70  71
ENDBRANCH  59  70
ENDBRANCH  56  59
ENDBRANCH  54  55
BRANCH  54  73
ATOM     73  C   UNK A   8      -2.300  -3.664  19.058  0.00  0.00    +0.074 C 
BRANCH  73  74
ATOM     74  C   UNK A   8      -2.597  -4.784  20.002  0.00  0.00    +0.084 C 
ATOM     75  N   UNK A   8      -1.603  -5.488  20.651  0.00  0.00    -0.229 NA
ATOM     76  C   UNK A   8      -2.155  -6.462  21.358  0.00  0.00    +0.345 C 
ATOM     77  N   UNK A   8      -3.461  -6.447  21.149  0.00  0.00    -0.082 NA
ATOM     78  O   UNK A   8      -4.618  -6.510  19.952  0.00  0.00    -0.254 OA
ATOM     79  O   UNK A   8      -1.342  -7.565  20.833  0.00  0.00    -0.174 OA
ATOM     80  C   UNK A   8      -3.758  -5.418  20.291  0.00  0.00    +0.261 C 
ENDBRANCH  73  74
ENDBRANCH  54  73
ENDBRANCH  52  54
ENDBRANCH  49  50
BRANCH  49  81
ATOM     81  CB  GLN A   7       1.339  -1.365  16.622  0.00  0.00    +0.039 C 
BRANCH  81  82
ATOM     82  CG  GLN A   7       2.352  -1.894  17.655  0.00  0.00    +0.087 C 
BRANCH  82  83
ATOM     83  CD  GLN A   7       2.994  -0.773  18.440  0.00  0.00    +0.219 C 
ATOM     84  NE2 GLN A   7       3.783  -1.158  19.444  0.00  0.00    -0.329 N 
ATOM     85 HE21 GLN A   7       4.251  -0.446  20.040  0.00  0.00    +0.145 HD
ATOM     86 HE22 GLN A   7       3.930  -2.170  19.631  0.00  0.00    +0.145 HD
ATOM     87  OE1 GLN A   7       2.783   0.407  18.172  0.00  0.00    -0.275 OA
ENDBRANCH  82  83
ENDBRANCH  81  82
ENDBRANCH  49  81
ENDBRANCH  46  49
ENDBRANCH   1  45
TORSDOF 35
REMARK  Name = ../refined-set-2016/3slz/3slz_pocket.pdb
REMARK  253 active torsions:
REMARK  status: ('A' for Active; 'I' for Inactive)
REMARK    1  A    between atoms: _2  and  _3
REMARK    2  A    between atoms: _9  and  _10
REMARK    3  A    between atoms: _15  and  _17
REMARK    4  A    between atoms: _17  and  _18
REMARK    5  A    between atoms: _17  and  _20
REMARK    6  A    between atoms: _20  and  _21
REMARK    7  A    between atoms: _24  and  _26
REMARK    8  A    between atoms: _26  and  _27
REMARK    9  A    between atoms: _26  and  _29
REMARK   10  A    between atoms: _32  and  _34
REMARK   11  A    between atoms: _34  and  _35
REMARK   12  A    between atoms: _34  and  _37
REMARK   13  A    between atoms: _37  and  _38
REMARK   14  A    between atoms: _41  and  _43
REMARK   15  A    between atoms: _43  and  _44
REMARK   16  A    between atoms: _43  and  _46
REMARK   17  A    between atoms: _46  and  _47
REMARK   18  A    between atoms: _50  and  _52
REMARK   19  A    between atoms: _52  and  _53
REMARK   20  A    between atoms: _55  and  _57
REMARK   21  A    between atoms: _57  and  _58
REMARK   22  A    between atoms: _61  and  _63
REMARK   23  A    between atoms: _63  and  _64
REMARK   24  A    between atoms: _63  and  _66
REMARK   25  A    between atoms: _66  and  _67
REMARK   26  A    between atoms: _67  and  _68
REMARK   27  A    between atoms: _73  and  _75
REMARK   28  A    between atoms: _75  and  _76
REMARK   29  A    between atoms: _75  and  _78
REMARK   30  A    between atoms: _78  and  _79
REMARK   31  A    between atoms: _84  and  _86
REMARK   32  A    between atoms: _86  and  _87
REMARK   33  A    between atoms: _86  and  _89
REMARK   34  A    between atoms: _89  and  _90
REMARK   35  A    between atoms: _92  and  _94
REMARK   36  A    between atoms: _94  and  _95
REMARK   37  A    between atoms: _94  and  _97
REMARK   38  A    between atoms: _100  and  _102
REMARK   39  A    between atoms: _102  and  _103
REMARK   40  A    between atoms: _102  and  _105
REMARK   41  A    between atoms: _105  and  _106
REMARK   42  A    between atoms: _108  and  _110
REMARK   43  A    between atoms: _110  and  _111
REMARK   44  A    between atoms: _114  and  _116
REMARK   45  A    between atoms: _116  and  _117
REMARK   46  A    between atoms: _116  and  _119
REMARK   47  A    between atoms: _119  and  _120
REMARK   48  A    between atoms: _130  and  _132
REMARK   49  A    between atoms: _132  and  _133
REMARK   50  A    between atoms: _132  and  _135
REMARK   51  A    between atoms: _138  and  _140
REMARK   52  A    between atoms: _140  and  _141
REMARK   53  A    between atoms: _140  and  _143
REMARK   54  A    between atoms: _143  and  _144
REMARK   55  A    between atoms: _144  and  _145
REMARK   56  A    between atoms: _150  and  _152
REMARK   57  A    between atoms: _152  and  _153
REMARK   58  A    between atoms: _155  and  _157
REMARK   59  A    between atoms: _157  and  _158
REMARK   60  A    between atoms: _161  and  _163
REMARK   61  A    between atoms: _163  and  _164
REMARK   62  A    between atoms: _163  and  _166
REMARK   63  A    between atoms: _166  and  _167
REMARK   64  A    between atoms: _170  and  _172
REMARK   65  A    between atoms: _172  and  _173
REMARK   66  A    between atoms: _175  and  _177
REMARK   67  A    between atoms: _177  and  _178
REMARK   68  A    between atoms: _180  and  _182
REMARK   69  A    between atoms: _182  and  _183
REMARK   70  A    between atoms: _182  and  _185
REMARK   71  A    between atoms: _185  and  _186
REMARK   72  A    between atoms: _186  and  _187
REMARK   73  A    between atoms: _187  and  _188
REMARK   74  A    between atoms: _188  and  _189
REMARK   75  A    between atoms: _193  and  _195
REMARK   76  A    between atoms: _195  and  _196
REMARK   77  A    between atoms: _195  and  _198
REMARK   78  A    between atoms: _198  and  _199
REMARK   79  A    between atoms: _204  and  _205
REMARK   80  A    between atoms: _207  and  _209
REMARK   81  A    between atoms: _209  and  _210
REMARK   82  A    between atoms: _209  and  _212
REMARK   83  A    between atoms: _212  and  _213
REMARK   84  A    between atoms: _223  and  _225
REMARK   85  A    between atoms: _225  and  _226
REMARK   86  A    between atoms: _225  and  _228
REMARK   87  A    between atoms: _228  and  _229
REMARK   88  A    between atoms: _232  and  _234
REMARK   89  A    between atoms: _234  and  _235
REMARK   90  A    between atoms: _234  and  _237
REMARK   91  A    between atoms: _240  and  _242
REMARK   92  A    between atoms: _242  and  _243
REMARK   93  A    between atoms: _242  and  _245
REMARK   94  A    between atoms: _245  and  _246
REMARK   95  A    between atoms: _249  and  _251
REMARK   96  A    between atoms: _251  and  _252
REMARK   97  A    between atoms: _251  and  _254
REMARK   98  A    between atoms: _257  and  _258
REMARK   99  A    between atoms: _263  and  _265
REMARK  100  A    between atoms: _265  and  _266
REMARK  101  A    between atoms: _265  and  _268
REMARK  102  A    between atoms: _268  and  _269
REMARK  103  A    between atoms: _274  and  _275
REMARK  104  A    between atoms: _278  and  _279
REMARK  105  A    between atoms: _284  and  _286
REMARK  106  A    between atoms: _286  and  _287
REMARK  107  A    between atoms: _286  and  _289
REMARK  108  A    between atoms: _289  and  _290
REMARK  109  A    between atoms: _293  and  _295
REMARK  110  A    between atoms: _295  and  _296
REMARK  111  A    between atoms: _295  and  _298
REMARK  112  A    between atoms: _298  and  _299
REMARK  113  A    between atoms: _302  and  _304
REMARK  114  A    between atoms: _304  and  _305
REMARK  115  A    between atoms: _307  and  _309
REMARK  116  A    between atoms: _309  and  _310
REMARK  117  A    between atoms: _309  and  _312
REMARK  118  A    between atoms: _312  and  _313
REMARK  119  A    between atoms: _313  and  _314
REMARK  120  A    between atoms: _314  and  _315
REMARK  121  A    between atoms: _325  and  _326
REMARK  122  A    between atoms: _331  and  _333
REMARK  123  A    between atoms: _333  and  _334
REMARK  124  A    between atoms: _333  and  _336
REMARK  125  A    between atoms: _336  and  _337
REMARK  126  A    between atoms: _340  and  _342
REMARK  127  A    between atoms: _342  and  _343
REMARK  128  A    between atoms: _342  and  _345
REMARK  129  A    between atoms: _348  and  _350
REMARK  130  A    between atoms: _350  and  _351
REMARK  131  A    between atoms: _350  and  _353
REMARK  132  A    between atoms: _353  and  _354
REMARK  133  A    between atoms: _357  and  _359
REMARK  134  A    between atoms: _359  and  _360
REMARK  135  A    between atoms: _359  and  _362
REMARK  136  A    between atoms: _362  and  _363
REMARK  137  A    between atoms: _366  and  _368
REMARK  138  A    between atoms: _368  and  _369
REMARK  139  A    between atoms: _371  and  _373
REMARK  140  A    between atoms: _373  and  _374
REMARK  141  A    between atoms: _377  and  _379
REMARK  142  A    between atoms: _379  and  _380
REMARK  143  A    between atoms: _379  and  _382
REMARK  144  A    between atoms: _382  and  _383
REMARK  145  A    between atoms: _383  and  _384
REMARK  146  A    between atoms: _389  and  _391
REMARK  147  A    between atoms: _391  and  _392
REMARK  148  A    between atoms: _391  and  _394
REMARK  149  A    between atoms: _394  and  _395
REMARK  150  A    between atoms: _400  and  _402
REMARK  151  A    between atoms: _402  and  _403
REMARK  152  A    between atoms: _402  and  _405
REMARK  153  A    between atoms: _405  and  _406
REMARK  154  A    between atoms: _408  and  _410
REMARK  155  A    between atoms: _410  and  _411
REMARK  156  A    between atoms: _410  and  _413
REMARK  157  A    between atoms: _416  and  _418
REMARK  158  A    between atoms: _418  and  _419
REMARK  159  A    between atoms: _418  and  _421
REMARK  160  A    between atoms: _421  and  _422
REMARK  161  A    between atoms: _424  and  _426
REMARK  162  A    between atoms: _426  and  _427
REMARK  163  A    between atoms: _430  and  _432
REMARK  164  A    between atoms: _432  and  _433
REMARK  165  A    between atoms: _432  and  _435
REMARK  166  A    between atoms: _435  and  _436
REMARK  167  A    between atoms: _446  and  _448
REMARK  168  A    between atoms: _448  and  _449
REMARK  169  A    between atoms: _448  and  _451
REMARK  170  A    between atoms: _454  and  _456
REMARK  171  A    between atoms: _456  and  _457
REMARK  172  A    between atoms: _456  and  _459
REMARK  173  A    between atoms: _459  and  _460
REMARK  174  A    between atoms: _460  and  _461
REMARK  175  A    between atoms: _466  and  _468
REMARK  176  A    between atoms: _468  and  _469
REMARK  177  A    between atoms: _471  and  _473
REMARK  178  A    between atoms: _473  and  _474
REMARK  179  A    between atoms: _477  and  _479
REMARK  180  A    between atoms: _479  and  _480
REMARK  181  A    between atoms: _479  and  _482
REMARK  182  A    between atoms: _482  and  _483
REMARK  183  A    between atoms: _486  and  _488
REMARK  184  A    between atoms: _488  and  _489
REMARK  185  A    between atoms: _491  and  _493
REMARK  186  A    between atoms: _493  and  _494
REMARK  187  A    between atoms: _496  and  _498
REMARK  188  A    between atoms: _498  and  _499
REMARK  189  A    between atoms: _498  and  _501
REMARK  190  A    between atoms: _501  and  _502
REMARK  191  A    between atoms: _502  and  _503
REMARK  192  A    between atoms: _503  and  _504
REMARK  193  A    between atoms: _504  and  _505
REMARK  194  A    between atoms: _509  and  _511
REMARK  195  A    between atoms: _511  and  _512
REMARK  196  A    between atoms: _511  and  _514
REMARK  197  A    between atoms: _514  and  _515
REMARK  198  A    between atoms: _515  and  _516
REMARK  199  A    between atoms: _516  and  _517
REMARK  200  A    between atoms: _526  and  _528
REMARK  201  A    between atoms: _528  and  _529
REMARK  202  A    between atoms: _528  and  _531
REMARK  203  A    between atoms: _531  and  _532
REMARK  204  A    between atoms: _537  and  _538
REMARK  205  A    between atoms: _540  and  _542
REMARK  206  A    between atoms: _542  and  _543
REMARK  207  A    between atoms: _542  and  _545
REMARK  208  A    between atoms: _545  and  _546
REMARK  209  A    between atoms: _556  and  _558
REMARK  210  A    between atoms: _558  and  _559
REMARK  211  A    between atoms: _558  and  _561
REMARK  212  A    between atoms: _561  and  _562
REMARK  213  A    between atoms: _564  and  _566
REMARK  214  A    between atoms: _566  and  _567
REMARK  215  A    between atoms: _566  and  _569
REMARK  216  A    between atoms: _569  and  _570
REMARK  217  A    between atoms: _573  and  _575
REMARK  218  A    between atoms: _575  and  _576
REMARK  219  A    between atoms: _575  and  _578
REMARK  220  A    between atoms: _581  and  _583
REMARK  221  A    between atoms: _583  and  _584
REMARK  222  A    between atoms: _583  and  _586
REMARK  223  A    between atoms: _586  and  _587
REMARK  224  A    between atoms: _590  and  _592
REMARK  225  A    between atoms: _592  and  _593
REMARK  226  A    between atoms: _592  and  _595
REMARK  227  A    between atoms: _598  and  _599
REMARK  228  A    between atoms: _604  and  _606
REMARK  229  A    between atoms: _606  and  _607
REMARK  230  A    between atoms: _606  and  _609
REMARK  231  A    between atoms: _609  and  _610
REMARK  232  A    between atoms: _615  and  _616
REMARK  233  A    between atoms: _619  and  _620
REMARK  234  A    between atoms: _625  and  _627
REMARK  235  A    between atoms: _627  and  _628
REMARK  236  A    between atoms: _627  and  _630
REMARK  237  A    between atoms: _630  and  _631
REMARK  238  A    between atoms: _634  and  _636
REMARK  239  A    between atoms: _636  and  _637
REMARK  240  A    between atoms: _636  and  _639
REMARK  241  A    between atoms: _639  and  _640
REMARK  242  A    between atoms: _643  and  _645
REMARK  243  A    between atoms: _645  and  _646
REMARK  244  A    between atoms: _648  and  _650
REMARK  245  A    between atoms: _650  and  _651
REMARK  246  A    between atoms: _650  and  _653
REMARK  247  A    between atoms: _653  and  _654
REMARK  248  A    between atoms: _654  and  _655
REMARK  249  A    between atoms: _655  and  _656
REMARK  250  A    between atoms: _665  and  _667
REMARK  251  A    between atoms: _667  and  _668
REMARK  252  A    between atoms: _667  and  _670
REMARK  253  A    between atoms: _670  and  _671
REMARK                            x       y       z     vdW  Elec       q    Type
REMARK                         _______ _______ _______ _____ _____    ______ ____
ROOT
ATOM      1  CA  GLN A   5      -1.951   7.017  17.461  0.00  0.00    +0.149 C 
ENDROOT
BRANCH   1   4
ATOM      2  C   VAL A   4      -3.340   6.089  19.228  0.00  0.00    +0.241 C 
ATOM      3  O   VAL A   4      -4.105   7.070  19.217  0.00  0.00    -0.273 OA
ATOM      4  N   GLN A   5      -2.237   6.018  18.490  0.00  0.00    -0.297 N 
ATOM      5  H   GLN A   5      -1.566   5.239  18.647  0.00  0.00    +0.150 HD
BRANCH   2   6
ATOM      6  CA  VAL A   4      -3.674   4.862  20.071  0.00  0.00    +0.149 C 
BRANCH   6   9
ATOM      7  C   TRP A   3      -2.856   5.005  22.365  0.00  0.00    +0.241 C 
ATOM      8  O   TRP A   3      -1.864   4.328  22.125  0.00  0.00    -0.273 OA
ATOM      9  N   VAL A   4      -3.790   5.284  21.477  0.00  0.00    -0.297 N 
ATOM     10  H   VAL A   4      -4.631   5.816  21.778  0.00  0.00    +0.150 HD
BRANCH   7  11
ATOM     11  CA  TRP A   3      -3.103   5.527  23.785  0.00  0.00    +0.153 C 
BRANCH  11  13
ATOM     12  C   ALA A   2      -4.188   3.701  24.927  0.00  0.00    +0.241 C 
ATOM     13  N   TRP A   3      -3.102   4.448  24.750  0.00  0.00    -0.297 N 
ATOM     14  H   TRP A   3      -2.246   4.256  25.309  0.00  0.00    +0.150 HD
ATOM     15  O   ALA A   2      -5.286   3.953  24.459  0.00  0.00    -0.273 OA
BRANCH  12  16
ATOM     16  CA  ALA A   2      -3.949   2.488  25.773  0.00  0.00    +0.149 C 
ATOM     17  CB  ALA A   2      -3.472   1.318  24.851  0.00  0.00    +0.031 C 
BRANCH  16  20
ATOM     18  C   SER A   1      -5.110   1.603  27.707  0.00  0.00    +0.241 C 
ATOM     19  O   SER A   1      -4.066   1.342  28.331  0.00  0.00    -0.274 OA
ATOM     20  N   ALA A   2      -5.148   2.135  26.479  0.00  0.00    -0.297 N 
ATOM     21  H   ALA A   2      -6.070   2.297  26.025  0.00  0.00    +0.150 HD
BRANCH  18  22
ATOM     22  CA  SER A   1      -6.470   1.304  28.290  0.00  0.00    +0.174 C 
BRANCH  22  23
ATOM     23  N   SER A   1      -6.316   0.520  29.520  0.00  0.00    -0.236 NA
ATOM     24  H   SER A   1      -5.555   0.762  30.186  0.00  0.00    +0.142 HD
ENDBRANCH  22  23
BRANCH  22  25
ATOM     25  CB  SER A   1      -7.160   2.620  28.555  0.00  0.00    +0.163 C 
BRANCH  25  26
ATOM     26  OG  SER A   1      -6.497   3.365  29.543  0.00  0.00    -0.380 OA
ATOM     27  H   SER A   1      -5.571   3.552  29.248  0.00  0.00    +0.211 HD
ENDBRANCH  25  26
ENDBRANCH  22  25
ENDBRANCH  18  22
ENDBRANCH  16  20
ENDBRANCH  12  16
ENDBRANCH  11  13
BRANCH  11  28
ATOM     28  CB  TRP A   3      -2.010   6.553  24.125  0.00  0.00    +0.057 C 
BRANCH  28  29
ATOM     29  CG  TRP A   3      -2.206   7.774  23.271  0.00  0.00    -0.002 A 
ATOM     30  CD2 TRP A   3      -3.172   8.807  23.472  0.00  0.00    +0.013 A 
ATOM     31  CE3 TRP A   3      -4.127   9.061  24.471  0.00  0.00    +0.001 A 
ATOM     32  CZ3 TRP A   3      -4.919  10.187  24.374  0.00  0.00    +0.000 A 
ATOM     33  CH2 TRP A   3      -4.758  11.098  23.293  0.00  0.00    +0.001 A 
ATOM     34  CZ2 TRP A   3      -3.830  10.888  22.304  0.00  0.00    +0.017 A 
ATOM     35  CE2 TRP A   3      -3.036   9.730  22.400  0.00  0.00    +0.056 A 
ATOM     36  NE1 TRP A   3      -2.056   9.254  21.580  0.00  0.00    -0.352 N 
ATOM     37  HE1 TRP A   3      -1.737   9.706  20.699  0.00  0.00    +0.166 HD
ATOM     38  CD1 TRP A   3      -1.555   8.083  22.100  0.00  0.00    +0.068 A 
ENDBRANCH  28  29
ENDBRANCH  11  28
ENDBRANCH   7  11
ENDBRANCH   6   9
BRANCH   6  39
ATOM     39  CB  VAL A   4      -4.946   4.162  19.610  0.00  0.00    +0.027 C 
ATOM     40  CG2 VAL A   4      -5.156   2.851  20.428  0.00  0.00    +0.002 C 
ATOM     41  CG1 VAL A   4      -4.906   3.867  18.096  0.00  0.00    +0.002 C 
ENDBRANCH   6  39
ENDBRANCH   2   6
ENDBRANCH   1   4
BRANCH   1  42
ATOM     42  C   GLN A   5      -2.514   6.519  16.132  0.00  0.00    +0.241 C 
ATOM     43  O   GLN A   5      -2.063   5.486  15.610  0.00  0.00    -0.273 OA
ATOM     44  N   GLY A   6      -3.458   7.236  15.602  0.00  0.00    -0.295 N 
ATOM     45  H   GLY A   6      -3.893   7.991  16.169  0.00  0.00    +0.150 HD
BRANCH  44  46
ATOM     46  CA  GLY A   6      -3.935   7.016  14.222  0.00  0.00    +0.176 C 
BRANCH  46  47
ATOM     47  C   GLY A   6      -3.325   7.977  13.220  0.00  0.00    +0.243 C 
ATOM     48  O   GLY A   6      -2.414   8.768  13.557  0.00  0.00    -0.273 OA
ATOM     49  N   ALA A   7      -3.743   7.882  11.967  0.00  0.00    -0.297 N 
ATOM     50  H   ALA A   7      -4.516   7.226  11.734  0.00  0.00    +0.150 HD
BRANCH  49  51
ATOM     51  CA  ALA A   7      -3.130   8.691  10.898  0.00  0.00    +0.149 C 
ATOM     52  CB  ALA A   7      -3.612   8.135   9.524  0.00  0.00    +0.031 C 
BRANCH  51  53
ATOM     53  C   ALA A   7      -3.498  10.145  11.039  0.00  0.00    +0.241 C 
ATOM     54  N   THR A   8      -4.594  10.457  11.727  0.00  0.00    -0.295 N 
ATOM     55  H   THR A   8      -5.083   9.704  12.252  0.00  0.00    +0.150 HD
ATOM     56  O   ALA A   7      -2.775  10.982  10.484  0.00  0.00    -0.273 OA
BRANCH  54  57
ATOM     57  CA  THR A   8      -5.139  11.807  11.777  0.00  0.00    +0.176 C 
BRANCH  57  58
ATOM     58  C   THR A   8      -5.165  12.405  13.182  0.00  0.00    +0.243 C 
ATOM     59  N   GLY A   9      -4.671  11.658  14.152  0.00  0.00    -0.295 N 
ATOM     60  H   GLY A   9      -4.259  10.729  13.928  0.00  0.00    +0.150 HD
ATOM     61  O   THR A   8      -5.598  13.550  13.372  0.00  0.00    -0.273 OA
BRANCH  59  62
ATOM     62  CA  GLY A   9      -4.697  12.122  15.532  0.00  0.00    +0.176 C 
BRANCH  62  63
ATOM     63  C   GLY A   9      -4.512  10.946  16.458  0.00  0.00    +0.243 C 
ATOM     64  N   GLY A  10      -4.920  11.085  17.712  0.00  0.00    -0.295 N 
ATOM     65  H   GLY A  10      -5.389  11.970  17.992  0.00  0.00    +0.150 HD
ATOM     66  O   GLY A   9      -3.968   9.928  16.020  0.00  0.00    -0.273 OA
BRANCH  64  67
ATOM     67  CA  GLY A  10      -4.732  10.031  18.721  0.00  0.00    +0.176 C 
BRANCH  67  68
ATOM     68  C   GLY A  10      -5.834  10.105  19.750  0.00  0.00    +0.243 C 
ATOM     69  N   LYS A  11      -6.127   8.998  20.422  0.00  0.00    -0.298 N 
ATOM     70  H   LYS A  11      -5.601   8.129  20.200  0.00  0.00    +0.150 HD
ATOM     71  O   GLY A  10      -6.443  11.164  19.933  0.00  0.00    -0.273 OA
BRANCH  69  72
ATOM     72  CA  LYS A  11      -7.162   8.944  21.466  0.00  0.00    +0.137 C 
BRANCH  72  73
ATOM     73  C   LYS A  11      -6.911   7.711  22.312  0.00  0.00    +0.227 C 
ATOM     74  O   LYS A  11      -6.231   6.743  21.869  0.00  0.00    -0.286 OA
ENDBRANCH  72  73
BRANCH  72  75
ATOM     75  CB  LYS A  11      -8.529   8.869  20.791  0.00  0.00    +0.028 C 
BRANCH  75  76
ATOM     76  CG  LYS A  11      -9.797   8.894  21.629  0.00  0.00    -0.000 C 
BRANCH  76  77
ATOM     77  CD  LYS A  11     -11.021   9.085  20.714  0.00  0.00    -0.024 C 
BRANCH  77  78
ATOM     78  CE  LYS A  11     -12.336   8.771  21.415  0.00  0.00    -0.086 C 
BRANCH  78  79
ATOM     79  NZ  LYS A  11     -12.794   9.873  22.323  0.00  0.00    +0.380 N 
ATOM     80  HZ1 LYS A  11     -12.076  10.037  23.057  0.00  0.00    -0.089 HD
ATOM     81  HZ2 LYS A  11     -13.693   9.601  22.770  0.00  0.00    -0.089 HD
ATOM     82  HZ3 LYS A  11     -12.930  10.743  21.769  0.00  0.00    -0.089 HD
ENDBRANCH  78  79
ENDBRANCH  77  78
ENDBRANCH  76  77
ENDBRANCH  75  76
ENDBRANCH  72  75
ENDBRANCH  69  72
ENDBRANCH  67  68
ENDBRANCH  64  67
ENDBRANCH  62  63
ENDBRANCH  59  62
ENDBRANCH  57  58
BRANCH  57  83
ATOM     83  CB  THR A   8      -6.552  11.891  11.175  0.00  0.00    +0.137 C 
ATOM     84  CG2 THR A   8      -6.603  11.237   9.786  0.00  0.00    +0.034 C 
BRANCH  83  85
ATOM     85  OG1 THR A   8      -7.471  11.173  12.051  0.00  0.00    -0.382 OA
ATOM     86  HG1 THR A   8      -7.188  10.227  12.120  0.00  0.00    +0.210 HD
ENDBRANCH  83  85
ENDBRANCH  57  83
ENDBRANCH  54  57
ENDBRANCH  51  53
ENDBRANCH  49  51
ENDBRANCH  46  47
ENDBRANCH  44  46
ENDBRANCH   1  42
BRANCH   1  87
ATOM     87  CB  GLN A   5      -0.455   7.265  17.349  0.00  0.00    +0.039 C 
BRANCH  87  88
ATOM     88  CG  GLN A   5      -0.189   8.332  16.243  0.00  0.00    +0.087 C 
BRANCH  88  89
ATOM     89  CD  GLN A   5       1.236   8.672  15.994  0.00  0.00    +0.219 C 
ATOM     90  NE2 GLN A   5       2.157   7.801  16.304  0.00  0.00    -0.329 N 
ATOM     91 HE21 GLN A   5       1.889   6.886  16.720  0.00  0.00    +0.145 HD
ATOM     92 HE22 GLN A   5       3.159   8.022  16.135  0.00  0.00    +0.145 HD
ATOM     93  OE1 GLN A   5       1.506   9.809  15.482  0.00  0.00    -0.275 OA
ENDBRANCH  88  89
ENDBRANCH  87  88
ENDBRANCH   1  87
TORSDOF 37
REMARK  Name = ../refined-set-2016/3slz/3slz_pocket.pdb
REMARK  253 active torsions:
REMARK  status: ('A' for Active; 'I' for Inactive)
REMARK    1  A    between atoms: _2  and  _3
REMARK    2  A    between atoms: _9  and  _10
REMARK    3  A    between atoms: _15  and  _17
REMARK    4  A    between atoms: _17  and  _18
REMARK    5  A    between atoms: _17  and  _20
REMARK    6  A    between atoms: _20  and  _21
REMARK    7  A    between atoms: _24  and  _26
REMARK    8  A    between atoms: _26  and  _27
REMARK    9  A    between atoms: _26  and  _29
REMARK   10  A    between atoms: _32  and  _34
REMARK   11  A    between atoms: _34  and  _35
REMARK   12  A    between atoms: _34  and  _37
REMARK   13  A    between atoms: _37  and  _38
REMARK   14  A    between atoms: _41  and  _43
REMARK   15  A    between atoms: _43  and  _44
REMARK   16  A    between atoms: _43  and  _46
REMARK   17  A    between atoms: _46  and  _47
REMARK   18  A    between atoms: _50  and  _52
REMARK   19  A    between atoms: _52  and  _53
REMARK   20  A    between atoms: _55  and  _57
REMARK   21  A    between atoms: _57  and  _58
REMARK   22  A    between atoms: _61  and  _63
REMARK   23  A    between atoms: _63  and  _64
REMARK   24  A    between atoms: _63  and  _66
REMARK   25  A    between atoms: _66  and  _67
REMARK   26  A    between atoms: _67  and  _68
REMARK   27  A    between atoms: _73  and  _75
REMARK   28  A    between atoms: _75  and  _76
REMARK   29  A    between atoms: _75  and  _78
REMARK   30  A    between atoms: _78  and  _79
REMARK   31  A    between atoms: _84  and  _86
REMARK   32  A    between atoms: _86  and  _87
REMARK   33  A    between atoms: _86  and  _89
REMARK   34  A    between atoms: _89  and  _90
REMARK   35  A    between atoms: _92  and  _94
REMARK   36  A    between atoms: _94  and  _95
REMARK   37  A    between atoms: _94  and  _97
REMARK   38  A    between atoms: _100  and  _102
REMARK   39  A    between atoms: _102  and  _103
REMARK   40  A    between atoms: _102  and  _105
REMARK   41  A    between atoms: _105  and  _106
REMARK   42  A    between atoms: _108  and  _110
REMARK   43  A    between atoms: _110  and  _111
REMARK   44  A    between atoms: _114  and  _116
REMARK   45  A    between atoms: _116  and  _117
REMARK   46  A    between atoms: _116  and  _119
REMARK   47  A    between atoms: _119  and  _120
REMARK   48  A    between atoms: _130  and  _132
REMARK   49  A    between atoms: _132  and  _133
REMARK   50  A    between atoms: _132  and  _135
REMARK   51  A    between atoms: _138  and  _140
REMARK   52  A    between atoms: _140  and  _141
REMARK   53  A    between atoms: _140  and  _143
REMARK   54  A    between atoms: _143  and  _144
REMARK   55  A    between atoms: _144  and  _145
REMARK   56  A    between atoms: _150  and  _152
REMARK   57  A    between atoms: _152  and  _153
REMARK   58  A    between atoms: _155  and  _157
REMARK   59  A    between atoms: _157  and  _158
REMARK   60  A    between atoms: _161  and  _163
REMARK   61  A    between atoms: _163  and  _164
REMARK   62  A    between atoms: _163  and  _166
REMARK   63  A    between atoms: _166  and  _167
REMARK   64  A    between atoms: _170  and  _172
REMARK   65  A    between atoms: _172  and  _173
REMARK   66  A    between atoms: _175  and  _177
REMARK   67  A    between atoms: _177  and  _178
REMARK   68  A    between atoms: _180  and  _182
REMARK   69  A    between atoms: _182  and  _183
REMARK   70  A    between atoms: _182  and  _185
REMARK   71  A    between atoms: _185  and  _186
REMARK   72  A    between atoms: _186  and  _187
REMARK   73  A    between atoms: _187  and  _188
REMARK   74  A    between atoms: _188  and  _189
REMARK   75  A    between atoms: _193  and  _195
REMARK   76  A    between atoms: _195  and  _196
REMARK   77  A    between atoms: _195  and  _198
REMARK   78  A    between atoms: _198  and  _199
REMARK   79  A    between atoms: _204  and  _205
REMARK   80  A    between atoms: _207  and  _209
REMARK   81  A    between atoms: _209  and  _210
REMARK   82  A    between atoms: _209  and  _212
REMARK   83  A    between atoms: _212  and  _213
REMARK   84  A    between atoms: _223  and  _225
REMARK   85  A    between atoms: _225  and  _226
REMARK   86  A    between atoms: _225  and  _228
REMARK   87  A    between atoms: _228  and  _229
REMARK   88  A    between atoms: _232  and  _234
REMARK   89  A    between atoms: _234  and  _235
REMARK   90  A    between atoms: _234  and  _237
REMARK   91  A    between atoms: _240  and  _242
REMARK   92  A    between atoms: _242  and  _243
REMARK   93  A    between atoms: _242  and  _245
REMARK   94  A    between atoms: _245  and  _246
REMARK   95  A    between atoms: _249  and  _251
REMARK   96  A    between atoms: _251  and  _252
REMARK   97  A    between atoms: _251  and  _254
REMARK   98  A    between atoms: _257  and  _258
REMARK   99  A    between atoms: _263  and  _265
REMARK  100  A    between atoms: _265  and  _266
REMARK  101  A    between atoms: _265  and  _268
REMARK  102  A    between atoms: _268  and  _269
REMARK  103  A    between atoms: _274  and  _275
REMARK  104  A    between atoms: _278  and  _279
REMARK  105  A    between atoms: _284  and  _286
REMARK  106  A    between atoms: _286  and  _287
REMARK  107  A    between atoms: _286  and  _289
REMARK  108  A    between atoms: _289  and  _290
REMARK  109  A    between atoms: _293  and  _295
REMARK  110  A    between atoms: _295  and  _296
REMARK  111  A    between atoms: _295  and  _298
REMARK  112  A    between atoms: _298  and  _299
REMARK  113  A    between atoms: _302  and  _304
REMARK  114  A    between atoms: _304  and  _305
REMARK  115  A    between atoms: _307  and  _309
REMARK  116  A    between atoms: _309  and  _310
REMARK  117  A    between atoms: _309  and  _312
REMARK  118  A    between atoms: _312  and  _313
REMARK  119  A    between atoms: _313  and  _314
REMARK  120  A    between atoms: _314  and  _315
REMARK  121  A    between atoms: _325  and  _326
REMARK  122  A    between atoms: _331  and  _333
REMARK  123  A    between atoms: _333  and  _334
REMARK  124  A    between atoms: _333  and  _336
REMARK  125  A    between atoms: _336  and  _337
REMARK  126  A    between atoms: _340  and  _342
REMARK  127  A    between atoms: _342  and  _343
REMARK  128  A    between atoms: _342  and  _345
REMARK  129  A    between atoms: _348  and  _350
REMARK  130  A    between atoms: _350  and  _351
REMARK  131  A    between atoms: _350  and  _353
REMARK  132  A    between atoms: _353  and  _354
REMARK  133  A    between atoms: _357  and  _359
REMARK  134  A    between atoms: _359  and  _360
REMARK  135  A    between atoms: _359  and  _362
REMARK  136  A    between atoms: _362  and  _363
REMARK  137  A    between atoms: _366  and  _368
REMARK  138  A    between atoms: _368  and  _369
REMARK  139  A    between atoms: _371  and  _373
REMARK  140  A    between atoms: _373  and  _374
REMARK  141  A    between atoms: _377  and  _379
REMARK  142  A    between atoms: _379  and  _380
REMARK  143  A    between atoms: _379  and  _382
REMARK  144  A    between atoms: _382  and  _383
REMARK  145  A    between atoms: _383  and  _384
REMARK  146  A    between atoms: _389  and  _391
REMARK  147  A    between atoms: _391  and  _392
REMARK  148  A    between atoms: _391  and  _394
REMARK  149  A    between atoms: _394  and  _395
REMARK  150  A    between atoms: _400  and  _402
REMARK  151  A    between atoms: _402  and  _403
REMARK  152  A    between atoms: _402  and  _405
REMARK  153  A    between atoms: _405  and  _406
REMARK  154  A    between atoms: _408  and  _410
REMARK  155  A    between atoms: _410  and  _411
REMARK  156  A    between atoms: _410  and  _413
REMARK  157  A    between atoms: _416  and  _418
REMARK  158  A    between atoms: _418  and  _419
REMARK  159  A    between atoms: _418  and  _421
REMARK  160  A    between atoms: _421  and  _422
REMARK  161  A    between atoms: _424  and  _426
REMARK  162  A    between atoms: _426  and  _427
REMARK  163  A    between atoms: _430  and  _432
REMARK  164  A    between atoms: _432  and  _433
REMARK  165  A    between atoms: _432  and  _435
REMARK  166  A    between atoms: _435  and  _436
REMARK  167  A    between atoms: _446  and  _448
REMARK  168  A    between atoms: _448  and  _449
REMARK  169  A    between atoms: _448  and  _451
REMARK  170  A    between atoms: _454  and  _456
REMARK  171  A    between atoms: _456  and  _457
REMARK  172  A    between atoms: _456  and  _459
REMARK  173  A    between atoms: _459  and  _460
REMARK  174  A    between atoms: _460  and  _461
REMARK  175  A    between atoms: _466  and  _468
REMARK  176  A    between atoms: _468  and  _469
REMARK  177  A    between atoms: _471  and  _473
REMARK  178  A    between atoms: _473  and  _474
REMARK  179  A    between atoms: _477  and  _479
REMARK  180  A    between atoms: _479  and  _480
REMARK  181  A    between atoms: _479  and  _482
REMARK  182  A    between atoms: _482  and  _483
REMARK  183  A    between atoms: _486  and  _488
REMARK  184  A    between atoms: _488  and  _489
REMARK  185  A    between atoms: _491  and  _493
REMARK  186  A    between atoms: _493  and  _494
REMARK  187  A    between atoms: _496  and  _498
REMARK  188  A    between atoms: _498  and  _499
REMARK  189  A    between atoms: _498  and  _501
REMARK  190  A    between atoms: _501  and  _502
REMARK  191  A    between atoms: _502  and  _503
REMARK  192  A    between atoms: _503  and  _504
REMARK  193  A    between atoms: _504  and  _505
REMARK  194  A    between atoms: _509  and  _511
REMARK  195  A    between atoms: _511  and  _512
REMARK  196  A    between atoms: _511  and  _514
REMARK  197  A    between atoms: _514  and  _515
REMARK  198  A    between atoms: _515  and  _516
REMARK  199  A    between atoms: _516  and  _517
REMARK  200  A    between atoms: _526  and  _528
REMARK  201  A    between atoms: _528  and  _529
REMARK  202  A    between atoms: _528  and  _531
REMARK  203  A    between atoms: _531  and  _532
REMARK  204  A    between atoms: _537  and  _538
REMARK  205  A    between atoms: _540  and  _542
REMARK  206  A    between atoms: _542  and  _543
REMARK  207  A    between atoms: _542  and  _545
REMARK  208  A    between atoms: _545  and  _546
REMARK  209  A    between atoms: _556  and  _558
REMARK  210  A    between atoms: _558  and  _559
REMARK  211  A    between atoms: _558  and  _561
REMARK  212  A    between atoms: _561  and  _562
REMARK  213  A    between atoms: _564  and  _566
REMARK  214  A    between atoms: _566  and  _567
REMARK  215  A    between atoms: _566  and  _569
REMARK  216  A    between atoms: _569  and  _570
REMARK  217  A    between atoms: _573  and  _575
REMARK  218  A    between atoms: _575  and  _576
REMARK  219  A    between atoms: _575  and  _578
REMARK  220  A    between atoms: _581  and  _583
REMARK  221  A    between atoms: _583  and  _584
REMARK  222  A    between atoms: _583  and  _586
REMARK  223  A    between atoms: _586  and  _587
REMARK  224  A    between atoms: _590  and  _592
REMARK  225  A    between atoms: _592  and  _593
REMARK  226  A    between atoms: _592  and  _595
REMARK  227  A    between atoms: _598  and  _599
REMARK  228  A    between atoms: _604  and  _606
REMARK  229  A    between atoms: _606  and  _607
REMARK  230  A    between atoms: _606  and  _609
REMARK  231  A    between atoms: _609  and  _610
REMARK  232  A    between atoms: _615  and  _616
REMARK  233  A    between atoms: _619  and  _620
REMARK  234  A    between atoms: _625  and  _627
REMARK  235  A    between atoms: _627  and  _628
REMARK  236  A    between atoms: _627  and  _630
REMARK  237  A    between atoms: _630  and  _631
REMARK  238  A    between atoms: _634  and  _636
REMARK  239  A    between atoms: _636  and  _637
REMARK  240  A    between atoms: _636  and  _639
REMARK  241  A    between atoms: _639  and  _640
REMARK  242  A    between atoms: _643  and  _645
REMARK  243  A    between atoms: _645  and  _646
REMARK  244  A    between atoms: _648  and  _650
REMARK  245  A    between atoms: _650  and  _651
REMARK  246  A    between atoms: _650  and  _653
REMARK  247  A    between atoms: _653  and  _654
REMARK  248  A    between atoms: _654  and  _655
REMARK  249  A    between atoms: _655  and  _656
REMARK  250  A    between atoms: _665  and  _667
REMARK  251  A    between atoms: _667  and  _668
REMARK  252  A    between atoms: _667  and  _670
REMARK  253  A    between atoms: _670  and  _671
REMARK                            x       y       z     vdW  Elec       q    Type
REMARK                         _______ _______ _______ _____ _____    ______ ____
ROOT
ATOM      1  CG  TYR A   1      -9.468   3.714  21.569  0.00  0.00    -0.020 A 
ATOM      2  CD2 TYR A   1     -10.776   3.995  21.293  0.00  0.00    -0.001 A 
ATOM      3  CE2 TYR A   1     -11.142   4.979  20.326  0.00  0.00    +0.036 A 
ATOM      4  CZ  TYR A   1     -10.131   5.632  19.635  0.00  0.00    +0.134 A 
ATOM      5  CE1 TYR A   1      -8.815   5.370  19.913  0.00  0.00    +0.036 A 
ATOM      6  CD1 TYR A   1      -8.483   4.390  20.873  0.00  0.00    -0.001 A 
ENDROOT
BRANCH   4   7
ATOM      7  OH  TYR A   1     -10.445   6.560  18.658  0.00  0.00    -0.506 OA
ATOM      8  HH  TYR A   1     -11.429   6.634  18.579  0.00  0.00    +0.292 HD
ENDBRANCH   4   7
BRANCH   1   9
ATOM      9  CB  TYR A   1      -9.109   2.692  22.595  0.00  0.00    +0.051 C 
BRANCH   9  10
ATOM     10  CA  TYR A   1      -9.152   3.274  24.009  0.00  0.00    +0.137 C 
BRANCH  10  11
ATOM     11  N   TYR A   1      -8.146   4.348  24.186  0.00  0.00    -0.239 NA
ATOM     12  H   TYR A   1      -7.144   4.091  24.293  0.00  0.00    +0.142 HD
ENDBRANCH  10  11
BRANCH  10  13
ATOM     13  C   TYR A   1      -8.925   2.166  24.999  0.00  0.00    +0.224 C 
ATOM     14  O   TYR A   1      -7.812   1.956  25.460  0.00  0.00    -0.287 OA
ENDBRANCH  10  13
ENDBRANCH   9  10
ENDBRANCH   1   9
TORSDOF 5
REMARK  Name = ../refined-set-2016/3slz/3slz_pocket.pdb
REMARK  253 active torsions:
REMARK  status: ('A' for Active; 'I' for Inactive)
REMARK    1  A    between atoms: _2  and  _3
REMARK    2  A    between atoms: _9  and  _10
REMARK    3  A    between atoms: _15  and  _17
REMARK    4  A    between atoms: _17  and  _18
REMARK    5  A    between atoms: _17  and  _20
REMARK    6  A    between atoms: _20  and  _21
REMARK    7  A    between atoms: _24  and  _26
REMARK    8  A    between atoms: _26  and  _27
REMARK    9  A    between atoms: _26  and  _29
REMARK   10  A    between atoms: _32  and  _34
REMARK   11  A    between atoms: _34  and  _35
REMARK   12  A    between atoms: _34  and  _37
REMARK   13  A    between atoms: _37  and  _38
REMARK   14  A    between atoms: _41  and  _43
REMARK   15  A    between atoms: _43  and  _44
REMARK   16  A    between atoms: _43  and  _46
REMARK   17  A    between atoms: _46  and  _47
REMARK   18  A    between atoms: _50  and  _52
REMARK   19  A    between atoms: _52  and  _53
REMARK   20  A    between atoms: _55  and  _57
REMARK   21  A    between atoms: _57  and  _58
REMARK   22  A    between atoms: _61  and  _63
REMARK   23  A    between atoms: _63  and  _64
REMARK   24  A    between atoms: _63  and  _66
REMARK   25  A    between atoms: _66  and  _67
REMARK   26  A    between atoms: _67  and  _68
REMARK   27  A    between atoms: _73  and  _75
REMARK   28  A    between atoms: _75  and  _76
REMARK   29  A    between atoms: _75  and  _78
REMARK   30  A    between atoms: _78  and  _79
REMARK   31  A    between atoms: _84  and  _86
REMARK   32  A    between atoms: _86  and  _87
REMARK   33  A    between atoms: _86  and  _89
REMARK   34  A    between atoms: _89  and  _90
REMARK   35  A    between atoms: _92  and  _94
REMARK   36  A    between atoms: _94  and  _95
REMARK   37  A    between atoms: _94  and  _97
REMARK   38  A    between atoms: _100  and  _102
REMARK   39  A    between atoms: _102  and  _103
REMARK   40  A    between atoms: _102  and  _105
REMARK   41  A    between atoms: _105  and  _106
REMARK   42  A    between atoms: _108  and  _110
REMARK   43  A    between atoms: _110  and  _111
REMARK   44  A    between atoms: _114  and  _116
REMARK   45  A    between atoms: _116  and  _117
REMARK   46  A    between atoms: _116  and  _119
REMARK   47  A    between atoms: _119  and  _120
REMARK   48  A    between atoms: _130  and  _132
REMARK   49  A    between atoms: _132  and  _133
REMARK   50  A    between atoms: _132  and  _135
REMARK   51  A    between atoms: _138  and  _140
REMARK   52  A    between atoms: _140  and  _141
REMARK   53  A    between atoms: _140  and  _143
REMARK   54  A    between atoms: _143  and  _144
REMARK   55  A    between atoms: _144  and  _145
REMARK   56  A    between atoms: _150  and  _152
REMARK   57  A    between atoms: _152  and  _153
REMARK   58  A    between atoms: _155  and  _157
REMARK   59  A    between atoms: _157  and  _158
REMARK   60  A    between atoms: _161  and  _163
REMARK   61  A    between atoms: _163  and  _164
REMARK   62  A    between atoms: _163  and  _166
REMARK   63  A    between atoms: _166  and  _167
REMARK   64  A    between atoms: _170  and  _172
REMARK   65  A    between atoms: _172  and  _173
REMARK   66  A    between atoms: _175  and  _177
REMARK   67  A    between atoms: _177  and  _178
REMARK   68  A    between atoms: _180  and  _182
REMARK   69  A    between atoms: _182  and  _183
REMARK   70  A    between atoms: _182  and  _185
REMARK   71  A    between atoms: _185  and  _186
REMARK   72  A    between atoms: _186  and  _187
REMARK   73  A    between atoms: _187  and  _188
REMARK   74  A    between atoms: _188  and  _189
REMARK   75  A    between atoms: _193  and  _195
REMARK   76  A    between atoms: _195  and  _196
REMARK   77  A    between atoms: _195  and  _198
REMARK   78  A    between atoms: _198  and  _199
REMARK   79  A    between atoms: _204  and  _205
REMARK   80  A    between atoms: _207  and  _209
REMARK   81  A    between atoms: _209  and  _210
REMARK   82  A    between atoms: _209  and  _212
REMARK   83  A    between atoms: _212  and  _213
REMARK   84  A    between atoms: _223  and  _225
REMARK   85  A    between atoms: _225  and  _226
REMARK   86  A    between atoms: _225  and  _228
REMARK   87  A    between atoms: _228  and  _229
REMARK   88  A    between atoms: _232  and  _234
REMARK   89  A    between atoms: _234  and  _235
REMARK   90  A    between atoms: _234  and  _237
REMARK   91  A    between atoms: _240  and  _242
REMARK   92  A    between atoms: _242  and  _243
REMARK   93  A    between atoms: _242  and  _245
REMARK   94  A    between atoms: _245  and  _246
REMARK   95  A    between atoms: _249  and  _251
REMARK   96  A    between atoms: _251  and  _252
REMARK   97  A    between atoms: _251  and  _254
REMARK   98  A    between atoms: _257  and  _258
REMARK   99  A    between atoms: _263  and  _265
REMARK  100  A    between atoms: _265  and  _266
REMARK  101  A    between atoms: _265  and  _268
REMARK  102  A    between atoms: _268  and  _269
REMARK  103  A    between atoms: _274  and  _275
REMARK  104  A    between atoms: _278  and  _279
REMARK  105  A    between atoms: _284  and  _286
REMARK  106  A    between atoms: _286  and  _287
REMARK  107  A    between atoms: _286  and  _289
REMARK  108  A    between atoms: _289  and  _290
REMARK  109  A    between atoms: _293  and  _295
REMARK  110  A    between atoms: _295  and  _296
REMARK  111  A    between atoms: _295  and  _298
REMARK  112  A    between atoms: _298  and  _299
REMARK  113  A    between atoms: _302  and  _304
REMARK  114  A    between atoms: _304  and  _305
REMARK  115  A    between atoms: _307  and  _309
REMARK  116  A    between atoms: _309  and  _310
REMARK  117  A    between atoms: _309  and  _312
REMARK  118  A    between atoms: _312  and  _313
REMARK  119  A    between atoms: _313  and  _314
REMARK  120  A    between atoms: _314  and  _315
REMARK  121  A    between atoms: _325  and  _326
REMARK  122  A    between atoms: _331  and  _333
REMARK  123  A    between atoms: _333  and  _334
REMARK  124  A    between atoms: _333  and  _336
REMARK  125  A    between atoms: _336  and  _337
REMARK  126  A    between atoms: _340  and  _342
REMARK  127  A    between atoms: _342  and  _343
REMARK  128  A    between atoms: _342  and  _345
REMARK  129  A    between atoms: _348  and  _350
REMARK  130  A    between atoms: _350  and  _351
REMARK  131  A    between atoms: _350  and  _353
REMARK  132  A    between atoms: _353  and  _354
REMARK  133  A    between atoms: _357  and  _359
REMARK  134  A    between atoms: _359  and  _360
REMARK  135  A    between atoms: _359  and  _362
REMARK  136  A    between atoms: _362  and  _363
REMARK  137  A    between atoms: _366  and  _368
REMARK  138  A    between atoms: _368  and  _369
REMARK  139  A    between atoms: _371  and  _373
REMARK  140  A    between atoms: _373  and  _374
REMARK  141  A    between atoms: _377  and  _379
REMARK  142  A    between atoms: _379  and  _380
REMARK  143  A    between atoms: _379  and  _382
REMARK  144  A    between atoms: _382  and  _383
REMARK  145  A    between atoms: _383  and  _384
REMARK  146  A    between atoms: _389  and  _391
REMARK  147  A    between atoms: _391  and  _392
REMARK  148  A    between atoms: _391  and  _394
REMARK  149  A    between atoms: _394  and  _395
REMARK  150  A    between atoms: _400  and  _402
REMARK  151  A    between atoms: _402  and  _403
REMARK  152  A    between atoms: _402  and  _405
REMARK  153  A    between atoms: _405  and  _406
REMARK  154  A    between atoms: _408  and  _410
REMARK  155  A    between atoms: _410  and  _411
REMARK  156  A    between atoms: _410  and  _413
REMARK  157  A    between atoms: _416  and  _418
REMARK  158  A    between atoms: _418  and  _419
REMARK  159  A    between atoms: _418  and  _421
REMARK  160  A    between atoms: _421  and  _422
REMARK  161  A    between atoms: _424  and  _426
REMARK  162  A    between atoms: _426  and  _427
REMARK  163  A    between atoms: _430  and  _432
REMARK  164  A    between atoms: _432  and  _433
REMARK  165  A    between atoms: _432  and  _435
REMARK  166  A    between atoms: _435  and  _436
REMARK  167  A    between atoms: _446  and  _448
REMARK  168  A    between atoms: _448  and  _449
REMARK  169  A    between atoms: _448  and  _451
REMARK  170  A    between atoms: _454  and  _456
REMARK  171  A    between atoms: _456  and  _457
REMARK  172  A    between atoms: _456  and  _459
REMARK  173  A    between atoms: _459  and  _460
REMARK  174  A    between atoms: _460  and  _461
REMARK  175  A    between atoms: _466  and  _468
REMARK  176  A    between atoms: _468  and  _469
REMARK  177  A    between atoms: _471  and  _473
REMARK  178  A    between atoms: _473  and  _474
REMARK  179  A    between atoms: _477  and  _479
REMARK  180  A    between atoms: _479  and  _480
REMARK  181  A    between atoms: _479  and  _482
REMARK  182  A    between atoms: _482  and  _483
REMARK  183  A    between atoms: _486  and  _488
REMARK  184  A    between atoms: _488  and  _489
REMARK  185  A    between atoms: _491  and  _493
REMARK  186  A    between atoms: _493  and  _494
REMARK  187  A    between atoms: _496  and  _498
REMARK  188  A    between atoms: _498  and  _499
REMARK  189  A    between atoms: _498  and  _501
REMARK  190  A    between atoms: _501  and  _502
REMARK  191  A    between atoms: _502  and  _503
REMARK  192  A    between atoms: _503  and  _504
REMARK  193  A    between atoms: _504  and  _505
REMARK  194  A    between atoms: _509  and  _511
REMARK  195  A    between atoms: _511  and  _512
REMARK  196  A    between atoms: _511  and  _514
REMARK  197  A    between atoms: _514  and  _515
REMARK  198  A    between atoms: _515  and  _516
REMARK  199  A    between atoms: _516  and  _517
REMARK  200  A    between atoms: _526  and  _528
REMARK  201  A    between atoms: _528  and  _529
REMARK  202  A    between atoms: _528  and  _531
REMARK  203  A    between atoms: _531  and  _532
REMARK  204  A    between atoms: _537  and  _538
REMARK  205  A    between atoms: _540  and  _542
REMARK  206  A    between atoms: _542  and  _543
REMARK  207  A    between atoms: _542  and  _545
REMARK  208  A    between atoms: _545  and  _546
REMARK  209  A    between atoms: _556  and  _558
REMARK  210  A    between atoms: _558  and  _559
REMARK  211  A    between atoms: _558  and  _561
REMARK  212  A    between atoms: _561  and  _562
REMARK  213  A    between atoms: _564  and  _566
REMARK  214  A    between atoms: _566  and  _567
REMARK  215  A    between atoms: _566  and  _569
REMARK  216  A    between atoms: _569  and  _570
REMARK  217  A    between atoms: _573  and  _575
REMARK  218  A    between atoms: _575  and  _576
REMARK  219  A    between atoms: _575  and  _578
REMARK  220  A    between atoms: _581  and  _583
REMARK  221  A    between atoms: _583  and  _584
REMARK  222  A    between atoms: _583  and  _586
REMARK  223  A    between atoms: _586  and  _587
REMARK  224  A    between atoms: _590  and  _592
REMARK  225  A    between atoms: _592  and  _593
REMARK  226  A    between atoms: _592  and  _595
REMARK  227  A    between atoms: _598  and  _599
REMARK  228  A    between atoms: _604  and  _606
REMARK  229  A    between atoms: _606  and  _607
REMARK  230  A    between atoms: _606  and  _609
REMARK  231  A    between atoms: _609  and  _610
REMARK  232  A    between atoms: _615  and  _616
REMARK  233  A    between atoms: _619  and  _620
REMARK  234  A    between atoms: _625  and  _627
REMARK  235  A    between atoms: _627  and  _628
REMARK  236  A    between atoms: _627  and  _630
REMARK  237  A    between atoms: _630  and  _631
REMARK  238  A    between atoms: _634  and  _636
REMARK  239  A    between atoms: _636  and  _637
REMARK  240  A    between atoms: _636  and  _639
REMARK  241  A    between atoms: _639  and  _640
REMARK  242  A    between atoms: _643  and  _645
REMARK  243  A    between atoms: _645  and  _646
REMARK  244  A    between atoms: _648  and  _650
REMARK  245  A    between atoms: _650  and  _651
REMARK  246  A    between atoms: _650  and  _653
REMARK  247  A    between atoms: _653  and  _654
REMARK  248  A    between atoms: _654  and  _655
REMARK  249  A    between atoms: _655  and  _656
REMARK  250  A    between atoms: _665  and  _667
REMARK  251  A    between atoms: _667  and  _668
REMARK  252  A    between atoms: _667  and  _670
REMARK  253  A    between atoms: _670  and  _671
REMARK                            x       y       z     vdW  Elec       q    Type
REMARK                         _______ _______ _______ _____ _____    ______ ____
ROOT
ATOM      1  CG  TRP A   1      -5.985  -3.200  26.340  0.00  0.00    -0.002 A 
ATOM      2  CD1 TRP A   1      -5.302  -2.237  27.010  0.00  0.00    +0.068 A 
ATOM      3  NE1 TRP A   1      -4.087  -1.986  26.357  0.00  0.00    -0.352 N 
ATOM      4  HE1 TRP A   1      -3.369  -1.291  26.646  0.00  0.00    +0.166 HD
ATOM      5  CE2 TRP A   1      -4.013  -2.815  25.274  0.00  0.00    +0.056 A 
ATOM      6  CZ2 TRP A   1      -3.007  -2.928  24.290  0.00  0.00    +0.017 A 
ATOM      7  CH2 TRP A   1      -3.214  -3.817  23.267  0.00  0.00    +0.001 A 
ATOM      8  CZ3 TRP A   1      -4.378  -4.622  23.214  0.00  0.00    +0.000 A 
ATOM      9  CE3 TRP A   1      -5.381  -4.495  24.182  0.00  0.00    +0.001 A 
ATOM     10  CD2 TRP A   1      -5.197  -3.580  25.232  0.00  0.00    +0.013 A 
ENDROOT
BRANCH   1  11
ATOM     11  CB  TRP A   1      -7.323  -3.774  26.694  0.00  0.00    +0.053 C 
BRANCH  11  12
ATOM     12  CA  TRP A   1      -8.522  -3.218  25.905  0.00  0.00    +0.137 C 
BRANCH  12  13
ATOM     13  N   TRP A   1      -8.808  -1.844  26.315  0.00  0.00    -0.239 NA
ATOM     14  H   TRP A   1      -8.477  -1.521  27.247  0.00  0.00    +0.142 HD
ENDBRANCH  12  13
BRANCH  12  15
ATOM     15  C   TRP A   1      -9.695  -4.131  26.191  0.00  0.00    +0.224 C 
ATOM     16  O   TRP A   1     -10.356  -3.939  27.245  0.00  0.00    -0.287 OA
ENDBRANCH  12  15
ENDBRANCH  11  12
ENDBRANCH   1  11
TORSDOF 4
REMARK  Name = ../refined-set-2016/3slz/3slz_pocket.pdb
REMARK  253 active torsions:
REMARK  status: ('A' for Active; 'I' for Inactive)
REMARK    1  A    between atoms: _2  and  _3
REMARK    2  A    between atoms: _9  and  _10
REMARK    3  A    between atoms: _15  and  _17
REMARK    4  A    between atoms: _17  and  _18
REMARK    5  A    between atoms: _17  and  _20
REMARK    6  A    between atoms: _20  and  _21
REMARK    7  A    between atoms: _24  and  _26
REMARK    8  A    between atoms: _26  and  _27
REMARK    9  A    between atoms: _26  and  _29
REMARK   10  A    between atoms: _32  and  _34
REMARK   11  A    between atoms: _34  and  _35
REMARK   12  A    between atoms: _34  and  _37
REMARK   13  A    between atoms: _37  and  _38
REMARK   14  A    between atoms: _41  and  _43
REMARK   15  A    between atoms: _43  and  _44
REMARK   16  A    between atoms: _43  and  _46
REMARK   17  A    between atoms: _46  and  _47
REMARK   18  A    between atoms: _50  and  _52
REMARK   19  A    between atoms: _52  and  _53
REMARK   20  A    between atoms: _55  and  _57
REMARK   21  A    between atoms: _57  and  _58
REMARK   22  A    between atoms: _61  and  _63
REMARK   23  A    between atoms: _63  and  _64
REMARK   24  A    between atoms: _63  and  _66
REMARK   25  A    between atoms: _66  and  _67
REMARK   26  A    between atoms: _67  and  _68
REMARK   27  A    between atoms: _73  and  _75
REMARK   28  A    between atoms: _75  and  _76
REMARK   29  A    between atoms: _75  and  _78
REMARK   30  A    between atoms: _78  and  _79
REMARK   31  A    between atoms: _84  and  _86
REMARK   32  A    between atoms: _86  and  _87
REMARK   33  A    between atoms: _86  and  _89
REMARK   34  A    between atoms: _89  and  _90
REMARK   35  A    between atoms: _92  and  _94
REMARK   36  A    between atoms: _94  and  _95
REMARK   37  A    between atoms: _94  and  _97
REMARK   38  A    between atoms: _100  and  _102
REMARK   39  A    between atoms: _102  and  _103
REMARK   40  A    between atoms: _102  and  _105
REMARK   41  A    between atoms: _105  and  _106
REMARK   42  A    between atoms: _108  and  _110
REMARK   43  A    between atoms: _110  and  _111
REMARK   44  A    between atoms: _114  and  _116
REMARK   45  A    between atoms: _116  and  _117
REMARK   46  A    between atoms: _116  and  _119
REMARK   47  A    between atoms: _119  and  _120
REMARK   48  A    between atoms: _130  and  _132
REMARK   49  A    between atoms: _132  and  _133
REMARK   50  A    between atoms: _132  and  _135
REMARK   51  A    between atoms: _138  and  _140
REMARK   52  A    between atoms: _140  and  _141
REMARK   53  A    between atoms: _140  and  _143
REMARK   54  A    between atoms: _143  and  _144
REMARK   55  A    between atoms: _144  and  _145
REMARK   56  A    between atoms: _150  and  _152
REMARK   57  A    between atoms: _152  and  _153
REMARK   58  A    between atoms: _155  and  _157
REMARK   59  A    between atoms: _157  and  _158
REMARK   60  A    between atoms: _161  and  _163
REMARK   61  A    between atoms: _163  and  _164
REMARK   62  A    between atoms: _163  and  _166
REMARK   63  A    between atoms: _166  and  _167
REMARK   64  A    between atoms: _170  and  _172
REMARK   65  A    between atoms: _172  and  _173
REMARK   66  A    between atoms: _175  and  _177
REMARK   67  A    between atoms: _177  and  _178
REMARK   68  A    between atoms: _180  and  _182
REMARK   69  A    between atoms: _182  and  _183
REMARK   70  A    between atoms: _182  and  _185
REMARK   71  A    between atoms: _185  and  _186
REMARK   72  A    between atoms: _186  and  _187
REMARK   73  A    between atoms: _187  and  _188
REMARK   74  A    between atoms: _188  and  _189
REMARK   75  A    between atoms: _193  and  _195
REMARK   76  A    between atoms: _195  and  _196
REMARK   77  A    between atoms: _195  and  _198
REMARK   78  A    between atoms: _198  and  _199
REMARK   79  A    between atoms: _204  and  _205
REMARK   80  A    between atoms: _207  and  _209
REMARK   81  A    between atoms: _209  and  _210
REMARK   82  A    between atoms: _209  and  _212
REMARK   83  A    between atoms: _212  and  _213
REMARK   84  A    between atoms: _223  and  _225
REMARK   85  A    between atoms: _225  and  _226
REMARK   86  A    between atoms: _225  and  _228
REMARK   87  A    between atoms: _228  and  _229
REMARK   88  A    between atoms: _232  and  _234
REMARK   89  A    between atoms: _234  and  _235
REMARK   90  A    between atoms: _234  and  _237
REMARK   91  A    between atoms: _240  and  _242
REMARK   92  A    between atoms: _242  and  _243
REMARK   93  A    between atoms: _242  and  _245
REMARK   94  A    between atoms: _245  and  _246
REMARK   95  A    between atoms: _249  and  _251
REMARK   96  A    between atoms: _251  and  _252
REMARK   97  A    between atoms: _251  and  _254
REMARK   98  A    between atoms: _257  and  _258
REMARK   99  A    between atoms: _263  and  _265
REMARK  100  A    between atoms: _265  and  _266
REMARK  101  A    between atoms: _265  and  _268
REMARK  102  A    between atoms: _268  and  _269
REMARK  103  A    between atoms: _274  and  _275
REMARK  104  A    between atoms: _278  and  _279
REMARK  105  A    between atoms: _284  and  _286
REMARK  106  A    between atoms: _286  and  _287
REMARK  107  A    between atoms: _286  and  _289
REMARK  108  A    between atoms: _289  and  _290
REMARK  109  A    between atoms: _293  and  _295
REMARK  110  A    between atoms: _295  and  _296
REMARK  111  A    between atoms: _295  and  _298
REMARK  112  A    between atoms: _298  and  _299
REMARK  113  A    between atoms: _302  and  _304
REMARK  114  A    between atoms: _304  and  _305
REMARK  115  A    between atoms: _307  and  _309
REMARK  116  A    between atoms: _309  and  _310
REMARK  117  A    between atoms: _309  and  _312
REMARK  118  A    between atoms: _312  and  _313
REMARK  119  A    between atoms: _313  and  _314
REMARK  120  A    between atoms: _314  and  _315
REMARK  121  A    between atoms: _325  and  _326
REMARK  122  A    between atoms: _331  and  _333
REMARK  123  A    between atoms: _333  and  _334
REMARK  124  A    between atoms: _333  and  _336
REMARK  125  A    between atoms: _336  and  _337
REMARK  126  A    between atoms: _340  and  _342
REMARK  127  A    between atoms: _342  and  _343
REMARK  128  A    between atoms: _342  and  _345
REMARK  129  A    between atoms: _348  and  _350
REMARK  130  A    between atoms: _350  and  _351
REMARK  131  A    between atoms: _350  and  _353
REMARK  132  A    between atoms: _353  and  _354
REMARK  133  A    between atoms: _357  and  _359
REMARK  134  A    between atoms: _359  and  _360
REMARK  135  A    between atoms: _359  and  _362
REMARK  136  A    between atoms: _362  and  _363
REMARK  137  A    between atoms: _366  and  _368
REMARK  138  A    between atoms: _368  and  _369
REMARK  139  A    between atoms: _371  and  _373
REMARK  140  A    between atoms: _373  and  _374
REMARK  141  A    between atoms: _377  and  _379
REMARK  142  A    between atoms: _379  and  _380
REMARK  143  A    between atoms: _379  and  _382
REMARK  144  A    between atoms: _382  and  _383
REMARK  145  A    between atoms: _383  and  _384
REMARK  146  A    between atoms: _389  and  _391
REMARK  147  A    between atoms: _391  and  _392
REMARK  148  A    between atoms: _391  and  _394
REMARK  149  A    between atoms: _394  and  _395
REMARK  150  A    between atoms: _400  and  _402
REMARK  151  A    between atoms: _402  and  _403
REMARK  152  A    between atoms: _402  and  _405
REMARK  153  A    between atoms: _405  and  _406
REMARK  154  A    between atoms: _408  and  _410
REMARK  155  A    between atoms: _410  and  _411
REMARK  156  A    between atoms: _410  and  _413
REMARK  157  A    between atoms: _416  and  _418
REMARK  158  A    between atoms: _418  and  _419
REMARK  159  A    between atoms: _418  and  _421
REMARK  160  A    between atoms: _421  and  _422
REMARK  161  A    between atoms: _424  and  _426
REMARK  162  A    between atoms: _426  and  _427
REMARK  163  A    between atoms: _430  and  _432
REMARK  164  A    between atoms: _432  and  _433
REMARK  165  A    between atoms: _432  and  _435
REMARK  166  A    between atoms: _435  and  _436
REMARK  167  A    between atoms: _446  and  _448
REMARK  168  A    between atoms: _448  and  _449
REMARK  169  A    between atoms: _448  and  _451
REMARK  170  A    between atoms: _454  and  _456
REMARK  171  A    between atoms: _456  and  _457
REMARK  172  A    between atoms: _456  and  _459
REMARK  173  A    between atoms: _459  and  _460
REMARK  174  A    between atoms: _460  and  _461
REMARK  175  A    between atoms: _466  and  _468
REMARK  176  A    between atoms: _468  and  _469
REMARK  177  A    between atoms: _471  and  _473
REMARK  178  A    between atoms: _473  and  _474
REMARK  179  A    between atoms: _477  and  _479
REMARK  180  A    between atoms: _479  and  _480
REMARK  181  A    between atoms: _479  and  _482
REMARK  182  A    between atoms: _482  and  _483
REMARK  183  A    between atoms: _486  and  _488
REMARK  184  A    between atoms: _488  and  _489
REMARK  185  A    between atoms: _491  and  _493
REMARK  186  A    between atoms: _493  and  _494
REMARK  187  A    between atoms: _496  and  _498
REMARK  188  A    between atoms: _498  and  _499
REMARK  189  A    between atoms: _498  and  _501
REMARK  190  A    between atoms: _501  and  _502
REMARK  191  A    between atoms: _502  and  _503
REMARK  192  A    between atoms: _503  and  _504
REMARK  193  A    between atoms: _504  and  _505
REMARK  194  A    between atoms: _509  and  _511
REMARK  195  A    between atoms: _511  and  _512
REMARK  196  A    between atoms: _511  and  _514
REMARK  197  A    between atoms: _514  and  _515
REMARK  198  A    between atoms: _515  and  _516
REMARK  199  A    between atoms: _516  and  _517
REMARK  200  A    between atoms: _526  and  _528
REMARK  201  A    between atoms: _528  and  _529
REMARK  202  A    between atoms: _528  and  _531
REMARK  203  A    between atoms: _531  and  _532
REMARK  204  A    between atoms: _537  and  _538
REMARK  205  A    between atoms: _540  and  _542
REMARK  206  A    between atoms: _542  and  _543
REMARK  207  A    between atoms: _542  and  _545
REMARK  208  A    between atoms: _545  and  _546
REMARK  209  A    between atoms: _556  and  _558
REMARK  210  A    between atoms: _558  and  _559
REMARK  211  A    between atoms: _558  and  _561
REMARK  212  A    between atoms: _561  and  _562
REMARK  213  A    between atoms: _564  and  _566
REMARK  214  A    between atoms: _566  and  _567
REMARK  215  A    between atoms: _566  and  _569
REMARK  216  A    between atoms: _569  and  _570
REMARK  217  A    between atoms: _573  and  _575
REMARK  218  A    between atoms: _575  and  _576
REMARK  219  A    between atoms: _575  and  _578
REMARK  220  A    between atoms: _581  and  _583
REMARK  221  A    between atoms: _583  and  _584
REMARK  222  A    between atoms: _583  and  _586
REMARK  223  A    between atoms: _586  and  _587
REMARK  224  A    between atoms: _590  and  _592
REMARK  225  A    between atoms: _592  and  _593
REMARK  226  A    between atoms: _592  and  _595
REMARK  227  A    between atoms: _598  and  _599
REMARK  228  A    between atoms: _604  and  _606
REMARK  229  A    between atoms: _606  and  _607
REMARK  230  A    between atoms: _606  and  _609
REMARK  231  A    between atoms: _609  and  _610
REMARK  232  A    between atoms: _615  and  _616
REMARK  233  A    between atoms: _619  and  _620
REMARK  234  A    between atoms: _625  and  _627
REMARK  235  A    between atoms: _627  and  _628
REMARK  236  A    between atoms: _627  and  _630
REMARK  237  A    between atoms: _630  and  _631
REMARK  238  A    between atoms: _634  and  _636
REMARK  239  A    between atoms: _636  and  _637
REMARK  240  A    between atoms: _636  and  _639
REMARK  241  A    between atoms: _639  and  _640
REMARK  242  A    between atoms: _643  and  _645
REMARK  243  A    between atoms: _645  and  _646
REMARK  244  A    between atoms: _648  and  _650
REMARK  245  A    between atoms: _650  and  _651
REMARK  246  A    between atoms: _650  and  _653
REMARK  247  A    between atoms: _653  and  _654
REMARK  248  A    between atoms: _654  and  _655
REMARK  249  A    between atoms: _655  and  _656
REMARK  250  A    between atoms: _665  and  _667
REMARK  251  A    between atoms: _667  and  _668
REMARK  252  A    between atoms: _667  and  _670
REMARK  253  A    between atoms: _670  and  _671
REMARK                            x       y       z     vdW  Elec       q    Type
REMARK                         _______ _______ _______ _____ _____    ______ ____
ROOT
ATOM      1  CA  LEU A   1      -8.141  -2.719  21.364  0.00  0.00    +0.133 C 
ENDROOT
BRANCH   1   2
ATOM      2  N   LEU A   1      -7.690  -4.085  21.075  0.00  0.00    -0.239 NA
ATOM      3  H   LEU A   1      -7.070  -4.263  20.259  0.00  0.00    +0.142 HD
ENDBRANCH   1   2
BRANCH   1   4
ATOM      4  C   LEU A   1      -9.561  -2.577  20.869  0.00  0.00    +0.224 C 
ATOM      5  O   LEU A   1      -9.871  -2.977  19.752  0.00  0.00    -0.287 OA
ENDBRANCH   1   4
BRANCH   1   6
ATOM      6  CB  LEU A   1      -7.237  -1.726  20.638  0.00  0.00    +0.025 C 
BRANCH   6   7
ATOM      7  CG  LEU A   1      -5.799  -1.687  21.130  0.00  0.00    +0.002 C 
ATOM      8  CD2 LEU A   1      -5.684  -0.987  22.501  0.00  0.00    +0.000 C 
ATOM      9  CD1 LEU A   1      -4.923  -1.000  20.084  0.00  0.00    +0.000 C 
ENDBRANCH   6   7
ENDBRANCH   1   6
TORSDOF 4
REMARK  Name = ../refined-set-2016/3slz/3slz_pocket.pdb
REMARK  253 active torsions:
REMARK  status: ('A' for Active; 'I' for Inactive)
REMARK    1  A    between atoms: _2  and  _3
REMARK    2  A    between atoms: _9  and  _10
REMARK    3  A    between atoms: _15  and  _17
REMARK    4  A    between atoms: _17  and  _18
REMARK    5  A    between atoms: _17  and  _20
REMARK    6  A    between atoms: _20  and  _21
REMARK    7  A    between atoms: _24  and  _26
REMARK    8  A    between atoms: _26  and  _27
REMARK    9  A    between atoms: _26  and  _29
REMARK   10  A    between atoms: _32  and  _34
REMARK   11  A    between atoms: _34  and  _35
REMARK   12  A    between atoms: _34  and  _37
REMARK   13  A    between atoms: _37  and  _38
REMARK   14  A    between atoms: _41  and  _43
REMARK   15  A    between atoms: _43  and  _44
REMARK   16  A    between atoms: _43  and  _46
REMARK   17  A    between atoms: _46  and  _47
REMARK   18  A    between atoms: _50  and  _52
REMARK   19  A    between atoms: _52  and  _53
REMARK   20  A    between atoms: _55  and  _57
REMARK   21  A    between atoms: _57  and  _58
REMARK   22  A    between atoms: _61  and  _63
REMARK   23  A    between atoms: _63  and  _64
REMARK   24  A    between atoms: _63  and  _66
REMARK   25  A    between atoms: _66  and  _67
REMARK   26  A    between atoms: _67  and  _68
REMARK   27  A    between atoms: _73  and  _75
REMARK   28  A    between atoms: _75  and  _76
REMARK   29  A    between atoms: _75  and  _78
REMARK   30  A    between atoms: _78  and  _79
REMARK   31  A    between atoms: _84  and  _86
REMARK   32  A    between atoms: _86  and  _87
REMARK   33  A    between atoms: _86  and  _89
REMARK   34  A    between atoms: _89  and  _90
REMARK   35  A    between atoms: _92  and  _94
REMARK   36  A    between atoms: _94  and  _95
REMARK   37  A    between atoms: _94  and  _97
REMARK   38  A    between atoms: _100  and  _102
REMARK   39  A    between atoms: _102  and  _103
REMARK   40  A    between atoms: _102  and  _105
REMARK   41  A    between atoms: _105  and  _106
REMARK   42  A    between atoms: _108  and  _110
REMARK   43  A    between atoms: _110  and  _111
REMARK   44  A    between atoms: _114  and  _116
REMARK   45  A    between atoms: _116  and  _117
REMARK   46  A    between atoms: _116  and  _119
REMARK   47  A    between atoms: _119  and  _120
REMARK   48  A    between atoms: _130  and  _132
REMARK   49  A    between atoms: _132  and  _133
REMARK   50  A    between atoms: _132  and  _135
REMARK   51  A    between atoms: _138  and  _140
REMARK   52  A    between atoms: _140  and  _141
REMARK   53  A    between atoms: _140  and  _143
REMARK   54  A    between atoms: _143  and  _144
REMARK   55  A    between atoms: _144  and  _145
REMARK   56  A    between atoms: _150  and  _152
REMARK   57  A    between atoms: _152  and  _153
REMARK   58  A    between atoms: _155  and  _157
REMARK   59  A    between atoms: _157  and  _158
REMARK   60  A    between atoms: _161  and  _163
REMARK   61  A    between atoms: _163  and  _164
REMARK   62  A    between atoms: _163  and  _166
REMARK   63  A    between atoms: _166  and  _167
REMARK   64  A    between atoms: _170  and  _172
REMARK   65  A    between atoms: _172  and  _173
REMARK   66  A    between atoms: _175  and  _177
REMARK   67  A    between atoms: _177  and  _178
REMARK   68  A    between atoms: _180  and  _182
REMARK   69  A    between atoms: _182  and  _183
REMARK   70  A    between atoms: _182  and  _185
REMARK   71  A    between atoms: _185  and  _186
REMARK   72  A    between atoms: _186  and  _187
REMARK   73  A    between atoms: _187  and  _188
REMARK   74  A    between atoms: _188  and  _189
REMARK   75  A    between atoms: _193  and  _195
REMARK   76  A    between atoms: _195  and  _196
REMARK   77  A    between atoms: _195  and  _198
REMARK   78  A    between atoms: _198  and  _199
REMARK   79  A    between atoms: _204  and  _205
REMARK   80  A    between atoms: _207  and  _209
REMARK   81  A    between atoms: _209  and  _210
REMARK   82  A    between atoms: _209  and  _212
REMARK   83  A    between atoms: _212  and  _213
REMARK   84  A    between atoms: _223  and  _225
REMARK   85  A    between atoms: _225  and  _226
REMARK   86  A    between atoms: _225  and  _228
REMARK   87  A    between atoms: _228  and  _229
REMARK   88  A    between atoms: _232  and  _234
REMARK   89  A    between atoms: _234  and  _235
REMARK   90  A    between atoms: _234  and  _237
REMARK   91  A    between atoms: _240  and  _242
REMARK   92  A    between atoms: _242  and  _243
REMARK   93  A    between atoms: _242  and  _245
REMARK   94  A    between atoms: _245  and  _246
REMARK   95  A    between atoms: _249  and  _251
REMARK   96  A    between atoms: _251  and  _252
REMARK   97  A    between atoms: _251  and  _254
REMARK   98  A    between atoms: _257  and  _258
REMARK   99  A    between atoms: _263  and  _265
REMARK  100  A    between atoms: _265  and  _266
REMARK  101  A    between atoms: _265  and  _268
REMARK  102  A    between atoms: _268  and  _269
REMARK  103  A    between atoms: _274  and  _275
REMARK  104  A    between atoms: _278  and  _279
REMARK  105  A    between atoms: _284  and  _286
REMARK  106  A    between atoms: _286  and  _287
REMARK  107  A    between atoms: _286  and  _289
REMARK  108  A    between atoms: _289  and  _290
REMARK  109  A    between atoms: _293  and  _295
REMARK  110  A    between atoms: _295  and  _296
REMARK  111  A    between atoms: _295  and  _298
REMARK  112  A    between atoms: _298  and  _299
REMARK  113  A    between atoms: _302  and  _304
REMARK  114  A    between atoms: _304  and  _305
REMARK  115  A    between atoms: _307  and  _309
REMARK  116  A    between atoms: _309  and  _310
REMARK  117  A    between atoms: _309  and  _312
REMARK  118  A    between atoms: _312  and  _313
REMARK  119  A    between atoms: _313  and  _314
REMARK  120  A    between atoms: _314  and  _315
REMARK  121  A    between atoms: _325  and  _326
REMARK  122  A    between atoms: _331  and  _333
REMARK  123  A    between atoms: _333  and  _334
REMARK  124  A    between atoms: _333  and  _336
REMARK  125  A    between atoms: _336  and  _337
REMARK  126  A    between atoms: _340  and  _342
REMARK  127  A    between atoms: _342  and  _343
REMARK  128  A    between atoms: _342  and  _345
REMARK  129  A    between atoms: _348  and  _350
REMARK  130  A    between atoms: _350  and  _351
REMARK  131  A    between atoms: _350  and  _353
REMARK  132  A    between atoms: _353  and  _354
REMARK  133  A    between atoms: _357  and  _359
REMARK  134  A    between atoms: _359  and  _360
REMARK  135  A    between atoms: _359  and  _362
REMARK  136  A    between atoms: _362  and  _363
REMARK  137  A    between atoms: _366  and  _368
REMARK  138  A    between atoms: _368  and  _369
REMARK  139  A    between atoms: _371  and  _373
REMARK  140  A    between atoms: _373  and  _374
REMARK  141  A    between atoms: _377  and  _379
REMARK  142  A    between atoms: _379  and  _380
REMARK  143  A    between atoms: _379  and  _382
REMARK  144  A    between atoms: _382  and  _383
REMARK  145  A    between atoms: _383  and  _384
REMARK  146  A    between atoms: _389  and  _391
REMARK  147  A    between atoms: _391  and  _392
REMARK  148  A    between atoms: _391  and  _394
REMARK  149  A    between atoms: _394  and  _395
REMARK  150  A    between atoms: _400  and  _402
REMARK  151  A    between atoms: _402  and  _403
REMARK  152  A    between atoms: _402  and  _405
REMARK  153  A    between atoms: _405  and  _406
REMARK  154  A    between atoms: _408  and  _410
REMARK  155  A    between atoms: _410  and  _411
REMARK  156  A    between atoms: _410  and  _413
REMARK  157  A    between atoms: _416  and  _418
REMARK  158  A    between atoms: _418  and  _419
REMARK  159  A    between atoms: _418  and  _421
REMARK  160  A    between atoms: _421  and  _422
REMARK  161  A    between atoms: _424  and  _426
REMARK  162  A    between atoms: _426  and  _427
REMARK  163  A    between atoms: _430  and  _432
REMARK  164  A    between atoms: _432  and  _433
REMARK  165  A    between atoms: _432  and  _435
REMARK  166  A    between atoms: _435  and  _436
REMARK  167  A    between atoms: _446  and  _448
REMARK  168  A    between atoms: _448  and  _449
REMARK  169  A    between atoms: _448  and  _451
REMARK  170  A    between atoms: _454  and  _456
REMARK  171  A    between atoms: _456  and  _457
REMARK  172  A    between atoms: _456  and  _459
REMARK  173  A    between atoms: _459  and  _460
REMARK  174  A    between atoms: _460  and  _461
REMARK  175  A    between atoms: _466  and  _468
REMARK  176  A    between atoms: _468  and  _469
REMARK  177  A    between atoms: _471  and  _473
REMARK  178  A    between atoms: _473  and  _474
REMARK  179  A    between atoms: _477  and  _479
REMARK  180  A    between atoms: _479  and  _480
REMARK  181  A    between atoms: _479  and  _482
REMARK  182  A    between atoms: _482  and  _483
REMARK  183  A    between atoms: _486  and  _488
REMARK  184  A    between atoms: _488  and  _489
REMARK  185  A    between atoms: _491  and  _493
REMARK  186  A    between atoms: _493  and  _494
REMARK  187  A    between atoms: _496  and  _498
REMARK  188  A    between atoms: _498  and  _499
REMARK  189  A    between atoms: _498  and  _501
REMARK  190  A    between atoms: _501  and  _502
REMARK  191  A    between atoms: _502  and  _503
REMARK  192  A    between atoms: _503  and  _504
REMARK  193  A    between atoms: _504  and  _505
REMARK  194  A    between atoms: _509  and  _511
REMARK  195  A    between atoms: _511  and  _512
REMARK  196  A    between atoms: _511  and  _514
REMARK  197  A    between atoms: _514  and  _515
REMARK  198  A    between atoms: _515  and  _516
REMARK  199  A    between atoms: _516  and  _517
REMARK  200  A    between atoms: _526  and  _528
REMARK  201  A    between atoms: _528  and  _529
REMARK  202  A    between atoms: _528  and  _531
REMARK  203  A    between atoms: _531  and  _532
REMARK  204  A    between atoms: _537  and  _538
REMARK  205  A    between atoms: _540  and  _542
REMARK  206  A    between atoms: _542  and  _543
REMARK  207  A    between atoms: _542  and  _545
REMARK  208  A    between atoms: _545  and  _546
REMARK  209  A    between atoms: _556  and  _558
REMARK  210  A    between atoms: _558  and  _559
REMARK  211  A    between atoms: _558  and  _561
REMARK  212  A    between atoms: _561  and  _562
REMARK  213  A    between atoms: _564  and  _566
REMARK  214  A    between atoms: _566  and  _567
REMARK  215  A    between atoms: _566  and  _569
REMARK  216  A    between atoms: _569  and  _570
REMARK  217  A    between atoms: _573  and  _575
REMARK  218  A    between atoms: _575  and  _576
REMARK  219  A    between atoms: _575  and  _578
REMARK  220  A    between atoms: _581  and  _583
REMARK  221  A    between atoms: _583  and  _584
REMARK  222  A    between atoms: _583  and  _586
REMARK  223  A    between atoms: _586  and  _587
REMARK  224  A    between atoms: _590  and  _592
REMARK  225  A    between atoms: _592  and  _593
REMARK  226  A    between atoms: _592  and  _595
REMARK  227  A    between atoms: _598  and  _599
REMARK  228  A    between atoms: _604  and  _606
REMARK  229  A    between atoms: _606  and  _607
REMARK  230  A    between atoms: _606  and  _609
REMARK  231  A    between atoms: _609  and  _610
REMARK  232  A    between atoms: _615  and  _616
REMARK  233  A    between atoms: _619  and  _620
REMARK  234  A    between atoms: _625  and  _627
REMARK  235  A    between atoms: _627  and  _628
REMARK  236  A    between atoms: _627  and  _630
REMARK  237  A    between atoms: _630  and  _631
REMARK  238  A    between atoms: _634  and  _636
REMARK  239  A    between atoms: _636  and  _637
REMARK  240  A    between atoms: _636  and  _639
REMARK  241  A    between atoms: _639  and  _640
REMARK  242  A    between atoms: _643  and  _645
REMARK  243  A    between atoms: _645  and  _646
REMARK  244  A    between atoms: _648  and  _650
REMARK  245  A    between atoms: _650  and  _651
REMARK  246  A    between atoms: _650  and  _653
REMARK  247  A    between atoms: _653  and  _654
REMARK  248  A    between atoms: _654  and  _655
REMARK  249  A    between atoms: _655  and  _656
REMARK  250  A    between atoms: _665  and  _667
REMARK  251  A    between atoms: _667  and  _668
REMARK  252  A    between atoms: _667  and  _670
REMARK  253  A    between atoms: _670  and  _671
REMARK                            x       y       z     vdW  Elec       q    Type
REMARK                         _______ _______ _______ _____ _____    ______ ____
ROOT
ATOM      1  CA  VAL A   1     -11.809   1.214  18.769  0.00  0.00    +0.133 C 
ENDROOT
BRANCH   1   2
ATOM      2  CB  VAL A   1     -10.530   1.360  17.912  0.00  0.00    +0.023 C 
ATOM      3  CG2 VAL A   1      -9.277   0.989  18.708  0.00  0.00    +0.002 C 
ATOM      4  CG1 VAL A   1     -10.394   2.826  17.411  0.00  0.00    +0.002 C 
ENDBRANCH   1   2
BRANCH   1   5
ATOM      5  N   VAL A   1     -11.903  -0.106  19.406  0.00  0.00    -0.239 NA
ATOM      6  H   VAL A   1     -12.059  -0.952  18.821  0.00  0.00    +0.142 HD
ENDBRANCH   1   5
BRANCH   1   7
ATOM      7  C   VAL A   1     -13.081   1.426  17.984  0.00  0.00    +0.224 C 
ATOM      8  O   VAL A   1     -13.146   1.158  16.801  0.00  0.00    -0.287 OA
ENDBRANCH   1   7
TORSDOF 3
REMARK  Name = ../refined-set-2016/3slz/3slz_pocket.pdb
REMARK  253 active torsions:
REMARK  status: ('A' for Active; 'I' for Inactive)
REMARK    1  A    between atoms: _2  and  _3
REMARK    2  A    between atoms: _9  and  _10
REMARK    3  A    between atoms: _15  and  _17
REMARK    4  A    between atoms: _17  and  _18
REMARK    5  A    between atoms: _17  and  _20
REMARK    6  A    between atoms: _20  and  _21
REMARK    7  A    between atoms: _24  and  _26
REMARK    8  A    between atoms: _26  and  _27
REMARK    9  A    between atoms: _26  and  _29
REMARK   10  A    between atoms: _32  and  _34
REMARK   11  A    between atoms: _34  and  _35
REMARK   12  A    between atoms: _34  and  _37
REMARK   13  A    between atoms: _37  and  _38
REMARK   14  A    between atoms: _41  and  _43
REMARK   15  A    between atoms: _43  and  _44
REMARK   16  A    between atoms: _43  and  _46
REMARK   17  A    between atoms: _46  and  _47
REMARK   18  A    between atoms: _50  and  _52
REMARK   19  A    between atoms: _52  and  _53
REMARK   20  A    between atoms: _55  and  _57
REMARK   21  A    between atoms: _57  and  _58
REMARK   22  A    between atoms: _61  and  _63
REMARK   23  A    between atoms: _63  and  _64
REMARK   24  A    between atoms: _63  and  _66
REMARK   25  A    between atoms: _66  and  _67
REMARK   26  A    between atoms: _67  and  _68
REMARK   27  A    between atoms: _73  and  _75
REMARK   28  A    between atoms: _75  and  _76
REMARK   29  A    between atoms: _75  and  _78
REMARK   30  A    between atoms: _78  and  _79
REMARK   31  A    between atoms: _84  and  _86
REMARK   32  A    between atoms: _86  and  _87
REMARK   33  A    between atoms: _86  and  _89
REMARK   34  A    between atoms: _89  and  _90
REMARK   35  A    between atoms: _92  and  _94
REMARK   36  A    between atoms: _94  and  _95
REMARK   37  A    between atoms: _94  and  _97
REMARK   38  A    between atoms: _100  and  _102
REMARK   39  A    between atoms: _102  and  _103
REMARK   40  A    between atoms: _102  and  _105
REMARK   41  A    between atoms: _105  and  _106
REMARK   42  A    between atoms: _108  and  _110
REMARK   43  A    between atoms: _110  and  _111
REMARK   44  A    between atoms: _114  and  _116
REMARK   45  A    between atoms: _116  and  _117
REMARK   46  A    between atoms: _116  and  _119
REMARK   47  A    between atoms: _119  and  _120
REMARK   48  A    between atoms: _130  and  _132
REMARK   49  A    between atoms: _132  and  _133
REMARK   50  A    between atoms: _132  and  _135
REMARK   51  A    between atoms: _138  and  _140
REMARK   52  A    between atoms: _140  and  _141
REMARK   53  A    between atoms: _140  and  _143
REMARK   54  A    between atoms: _143  and  _144
REMARK   55  A    between atoms: _144  and  _145
REMARK   56  A    between atoms: _150  and  _152
REMARK   57  A    between atoms: _152  and  _153
REMARK   58  A    between atoms: _155  and  _157
REMARK   59  A    between atoms: _157  and  _158
REMARK   60  A    between atoms: _161  and  _163
REMARK   61  A    between atoms: _163  and  _164
REMARK   62  A    between atoms: _163  and  _166
REMARK   63  A    between atoms: _166  and  _167
REMARK   64  A    between atoms: _170  and  _172
REMARK   65  A    between atoms: _172  and  _173
REMARK   66  A    between atoms: _175  and  _177
REMARK   67  A    between atoms: _177  and  _178
REMARK   68  A    between atoms: _180  and  _182
REMARK   69  A    between atoms: _182  and  _183
REMARK   70  A    between atoms: _182  and  _185
REMARK   71  A    between atoms: _185  and  _186
REMARK   72  A    between atoms: _186  and  _187
REMARK   73  A    between atoms: _187  and  _188
REMARK   74  A    between atoms: _188  and  _189
REMARK   75  A    between atoms: _193  and  _195
REMARK   76  A    between atoms: _195  and  _196
REMARK   77  A    between atoms: _195  and  _198
REMARK   78  A    between atoms: _198  and  _199
REMARK   79  A    between atoms: _204  and  _205
REMARK   80  A    between atoms: _207  and  _209
REMARK   81  A    between atoms: _209  and  _210
REMARK   82  A    between atoms: _209  and  _212
REMARK   83  A    between atoms: _212  and  _213
REMARK   84  A    between atoms: _223  and  _225
REMARK   85  A    between atoms: _225  and  _226
REMARK   86  A    between atoms: _225  and  _228
REMARK   87  A    between atoms: _228  and  _229
REMARK   88  A    between atoms: _232  and  _234
REMARK   89  A    between atoms: _234  and  _235
REMARK   90  A    between atoms: _234  and  _237
REMARK   91  A    between atoms: _240  and  _242
REMARK   92  A    between atoms: _242  and  _243
REMARK   93  A    between atoms: _242  and  _245
REMARK   94  A    between atoms: _245  and  _246
REMARK   95  A    between atoms: _249  and  _251
REMARK   96  A    between atoms: _251  and  _252
REMARK   97  A    between atoms: _251  and  _254
REMARK   98  A    between atoms: _257  and  _258
REMARK   99  A    between atoms: _263  and  _265
REMARK  100  A    between atoms: _265  and  _266
REMARK  101  A    between atoms: _265  and  _268
REMARK  102  A    between atoms: _268  and  _269
REMARK  103  A    between atoms: _274  and  _275
REMARK  104  A    between atoms: _278  and  _279
REMARK  105  A    between atoms: _284  and  _286
REMARK  106  A    between atoms: _286  and  _287
REMARK  107  A    between atoms: _286  and  _289
REMARK  108  A    between atoms: _289  and  _290
REMARK  109  A    between atoms: _293  and  _295
REMARK  110  A    between atoms: _295  and  _296
REMARK  111  A    between atoms: _295  and  _298
REMARK  112  A    between atoms: _298  and  _299
REMARK  113  A    between atoms: _302  and  _304
REMARK  114  A    between atoms: _304  and  _305
REMARK  115  A    between atoms: _307  and  _309
REMARK  116  A    between atoms: _309  and  _310
REMARK  117  A    between atoms: _309  and  _312
REMARK  118  A    between atoms: _312  and  _313
REMARK  119  A    between atoms: _313  and  _314
REMARK  120  A    between atoms: _314  and  _315
REMARK  121  A    between atoms: _325  and  _326
REMARK  122  A    between atoms: _331  and  _333
REMARK  123  A    between atoms: _333  and  _334
REMARK  124  A    between atoms: _333  and  _336
REMARK  125  A    between atoms: _336  and  _337
REMARK  126  A    between atoms: _340  and  _342
REMARK  127  A    between atoms: _342  and  _343
REMARK  128  A    between atoms: _342  and  _345
REMARK  129  A    between atoms: _348  and  _350
REMARK  130  A    between atoms: _350  and  _351
REMARK  131  A    between atoms: _350  and  _353
REMARK  132  A    between atoms: _353  and  _354
REMARK  133  A    between atoms: _357  and  _359
REMARK  134  A    between atoms: _359  and  _360
REMARK  135  A    between atoms: _359  and  _362
REMARK  136  A    between atoms: _362  and  _363
REMARK  137  A    between atoms: _366  and  _368
REMARK  138  A    between atoms: _368  and  _369
REMARK  139  A    between atoms: _371  and  _373
REMARK  140  A    between atoms: _373  and  _374
REMARK  141  A    between atoms: _377  and  _379
REMARK  142  A    between atoms: _379  and  _380
REMARK  143  A    between atoms: _379  and  _382
REMARK  144  A    between atoms: _382  and  _383
REMARK  145  A    between atoms: _383  and  _384
REMARK  146  A    between atoms: _389  and  _391
REMARK  147  A    between atoms: _391  and  _392
REMARK  148  A    between atoms: _391  and  _394
REMARK  149  A    between atoms: _394  and  _395
REMARK  150  A    between atoms: _400  and  _402
REMARK  151  A    between atoms: _402  and  _403
REMARK  152  A    between atoms: _402  and  _405
REMARK  153  A    between atoms: _405  and  _406
REMARK  154  A    between atoms: _408  and  _410
REMARK  155  A    between atoms: _410  and  _411
REMARK  156  A    between atoms: _410  and  _413
REMARK  157  A    between atoms: _416  and  _418
REMARK  158  A    between atoms: _418  and  _419
REMARK  159  A    between atoms: _418  and  _421
REMARK  160  A    between atoms: _421  and  _422
REMARK  161  A    between atoms: _424  and  _426
REMARK  162  A    between atoms: _426  and  _427
REMARK  163  A    between atoms: _430  and  _432
REMARK  164  A    between atoms: _432  and  _433
REMARK  165  A    between atoms: _432  and  _435
REMARK  166  A    between atoms: _435  and  _436
REMARK  167  A    between atoms: _446  and  _448
REMARK  168  A    between atoms: _448  and  _449
REMARK  169  A    between atoms: _448  and  _451
REMARK  170  A    between atoms: _454  and  _456
REMARK  171  A    between atoms: _456  and  _457
REMARK  172  A    between atoms: _456  and  _459
REMARK  173  A    between atoms: _459  and  _460
REMARK  174  A    between atoms: _460  and  _461
REMARK  175  A    between atoms: _466  and  _468
REMARK  176  A    between atoms: _468  and  _469
REMARK  177  A    between atoms: _471  and  _473
REMARK  178  A    between atoms: _473  and  _474
REMARK  179  A    between atoms: _477  and  _479
REMARK  180  A    between atoms: _479  and  _480
REMARK  181  A    between atoms: _479  and  _482
REMARK  182  A    between atoms: _482  and  _483
REMARK  183  A    between atoms: _486  and  _488
REMARK  184  A    between atoms: _488  and  _489
REMARK  185  A    between atoms: _491  and  _493
REMARK  186  A    between atoms: _493  and  _494
REMARK  187  A    between atoms: _496  and  _498
REMARK  188  A    between atoms: _498  and  _499
REMARK  189  A    between atoms: _498  and  _501
REMARK  190  A    between atoms: _501  and  _502
REMARK  191  A    between atoms: _502  and  _503
REMARK  192  A    between atoms: _503  and  _504
REMARK  193  A    between atoms: _504  and  _505
REMARK  194  A    between atoms: _509  and  _511
REMARK  195  A    between atoms: _511  and  _512
REMARK  196  A    between atoms: _511  and  _514
REMARK  197  A    between atoms: _514  and  _515
REMARK  198  A    between atoms: _515  and  _516
REMARK  199  A    between atoms: _516  and  _517
REMARK  200  A    between atoms: _526  and  _528
REMARK  201  A    between atoms: _528  and  _529
REMARK  202  A    between atoms: _528  and  _531
REMARK  203  A    between atoms: _531  and  _532
REMARK  204  A    between atoms: _537  and  _538
REMARK  205  A    between atoms: _540  and  _542
REMARK  206  A    between atoms: _542  and  _543
REMARK  207  A    between atoms: _542  and  _545
REMARK  208  A    between atoms: _545  and  _546
REMARK  209  A    between atoms: _556  and  _558
REMARK  210  A    between atoms: _558  and  _559
REMARK  211  A    between atoms: _558  and  _561
REMARK  212  A    between atoms: _561  and  _562
REMARK  213  A    between atoms: _564  and  _566
REMARK  214  A    between atoms: _566  and  _567
REMARK  215  A    between atoms: _566  and  _569
REMARK  216  A    between atoms: _569  and  _570
REMARK  217  A    between atoms: _573  and  _575
REMARK  218  A    between atoms: _575  and  _576
REMARK  219  A    between atoms: _575  and  _578
REMARK  220  A    between atoms: _581  and  _583
REMARK  221  A    between atoms: _583  and  _584
REMARK  222  A    between atoms: _583  and  _586
REMARK  223  A    between atoms: _586  and  _587
REMARK  224  A    between atoms: _590  and  _592
REMARK  225  A    between atoms: _592  and  _593
REMARK  226  A    between atoms: _592  and  _595
REMARK  227  A    between atoms: _598  and  _599
REMARK  228  A    between atoms: _604  and  _606
REMARK  229  A    between atoms: _606  and  _607
REMARK  230  A    between atoms: _606  and  _609
REMARK  231  A    between atoms: _609  and  _610
REMARK  232  A    between atoms: _615  and  _616
REMARK  233  A    between atoms: _619  and  _620
REMARK  234  A    between atoms: _625  and  _627
REMARK  235  A    between atoms: _627  and  _628
REMARK  236  A    between atoms: _627  and  _630
REMARK  237  A    between atoms: _630  and  _631
REMARK  238  A    between atoms: _634  and  _636
REMARK  239  A    between atoms: _636  and  _637
REMARK  240  A    between atoms: _636  and  _639
REMARK  241  A    between atoms: _639  and  _640
REMARK  242  A    between atoms: _643  and  _645
REMARK  243  A    between atoms: _645  and  _646
REMARK  244  A    between atoms: _648  and  _650
REMARK  245  A    between atoms: _650  and  _651
REMARK  246  A    between atoms: _650  and  _653
REMARK  247  A    between atoms: _653  and  _654
REMARK  248  A    between atoms: _654  and  _655
REMARK  249  A    between atoms: _655  and  _656
REMARK  250  A    between atoms: _665  and  _667
REMARK  251  A    between atoms: _667  and  _668
REMARK  252  A    between atoms: _667  and  _670
REMARK  253  A    between atoms: _670  and  _671
REMARK                            x       y       z     vdW  Elec       q    Type
REMARK                         _______ _______ _______ _____ _____    ______ ____
ROOT
ATOM      1  C   TYR A   4     -12.851  -2.920  11.505  0.00  0.00    +0.244 C 
ATOM      2  N   PRO A   5     -12.944  -4.163  11.942  0.00  0.00    -0.272 N 
ATOM      3  CA  PRO A   5     -11.863  -4.736  12.718  0.00  0.00    +0.152 C 
ATOM      4  CB  PRO A   5     -12.401  -6.120  13.045  0.00  0.00    +0.031 C 
ATOM      5  CG  PRO A   5     -13.911  -6.055  12.902  0.00  0.00    +0.024 C 
ATOM      6  CD  PRO A   5     -14.073  -5.115  11.793  0.00  0.00    +0.094 C 
ATOM      7  O   TYR A   4     -11.911  -2.162  11.742  0.00  0.00    -0.273 OA
ENDROOT
BRANCH   3   8
ATOM      8  C   PRO A   5     -10.558  -4.831  11.919  0.00  0.00    +0.241 C 
ATOM      9  N   LEU A   6      -9.444  -4.751  12.648  0.00  0.00    -0.297 N 
ATOM     10  H   LEU A   6      -9.521  -4.683  13.683  0.00  0.00    +0.150 HD
ATOM     11  O   PRO A   5     -10.569  -4.940  10.683  0.00  0.00    -0.273 OA
BRANCH   9  12
ATOM     12  CA  LEU A   6      -8.121  -4.756  12.036  0.00  0.00    +0.149 C 
BRANCH  12  13
ATOM     13  C   LEU A   6      -7.314  -5.882  12.628  0.00  0.00    +0.241 C 
ATOM     14  O   LEU A   6      -7.176  -6.013  13.839  0.00  0.00    -0.273 OA
ATOM     15  N   LEU A   7      -6.748  -6.684  11.715  0.00  0.00    -0.297 N 
ATOM     16  H   LEU A   7      -6.965  -6.548  10.707  0.00  0.00    +0.150 HD
BRANCH  15  17
ATOM     17  CA  LEU A   7      -5.828  -7.749  12.119  0.00  0.00    +0.149 C 
BRANCH  17  18
ATOM     18  C   LEU A   7      -4.427  -7.227  11.914  0.00  0.00    +0.241 C 
ATOM     19  N   GLY A   8      -3.770  -6.923  13.040  0.00  0.00    -0.295 N 
ATOM     20  H   GLY A   8      -4.170  -7.177  13.966  0.00  0.00    +0.150 HD
ATOM     21  O   LEU A   7      -3.949  -7.087  10.780  0.00  0.00    -0.273 OA
BRANCH  19  22
ATOM     22  CA  GLY A   8      -2.469  -6.221  12.955  0.00  0.00    +0.176 C 
BRANCH  22  23
ATOM     23  C   GLY A   8      -1.265  -7.136  13.102  0.00  0.00    +0.243 C 
ATOM     24  N   ARG A   9      -0.092  -6.532  13.197  0.00  0.00    -0.298 N 
ATOM     25  H   ARG A   9      -0.068  -5.496  13.287  0.00  0.00    +0.150 HD
ATOM     26  O   GLY A   8      -1.383  -8.371  13.097  0.00  0.00    -0.273 OA
BRANCH  24  27
ATOM     27  CA  ARG A   9       1.167  -7.263  13.180  0.00  0.00    +0.137 C 
BRANCH  27  28
ATOM     28  C   ARG A   9       1.277  -8.200  14.354  0.00  0.00    +0.227 C 
ATOM     29  O   ARG A   9       1.982  -9.218  14.224  0.00  0.00    -0.286 OA
ENDBRANCH  27  28
BRANCH  27  30
ATOM     30  CB  ARG A   9       2.348  -6.264  13.163  0.00  0.00    +0.031 C 
BRANCH  30  31
ATOM     31  CG  ARG A   9       2.372  -5.402  11.894  0.00  0.00    +0.045 C 
BRANCH  31  32
ATOM     32  CD  ARG A   9       3.713  -4.621  11.820  0.00  0.00    +0.174 C 
BRANCH  32  33
ATOM     33  NE  ARG A   9       3.947  -3.701  12.935  0.00  0.00    -0.265 N 
ATOM     34  HE  ARG A   9       4.458  -4.072  13.762  0.00  0.00    +0.259 HD
ATOM     35  CZ  ARG A   9       3.561  -2.437  12.975  0.00  0.00    +0.342 C 
ATOM     36  NH2 ARG A   9       3.873  -1.695  14.054  0.00  0.00    -0.292 N 
ATOM     37 HH21 ARG A   9       4.409  -2.118  14.838  0.00  0.00    +0.255 HD
ATOM     38 HH22 ARG A   9       3.578  -0.699  14.103  0.00  0.00    +0.255 HD
ATOM     39  NH1 ARG A   9       2.840  -1.905  12.001  0.00  0.00    -0.292 N 
ATOM     40 HH11 ARG A   9       2.548  -0.908  12.055  0.00  0.00    +0.255 HD
ATOM     41 HH12 ARG A   9       2.565  -2.484  11.182  0.00  0.00    +0.255 HD
ENDBRANCH  32  33
ENDBRANCH  31  32
ENDBRANCH  30  31
ENDBRANCH  27  30
ENDBRANCH  24  27
ENDBRANCH  22  23
ENDBRANCH  19  22
ENDBRANCH  17  18
BRANCH  17  42
ATOM     42  CB  LEU A   7      -6.097  -9.059  11.344  0.00  0.00    +0.029 C 
BRANCH  42  43
ATOM     43  CG  LEU A   7      -5.341 -10.263  11.905  0.00  0.00    +0.002 C 
ATOM     44  CD2 LEU A   7      -6.015 -10.683  13.165  0.00  0.00    +0.000 C 
ATOM     45  CD1 LEU A   7      -5.368 -11.394  10.876  0.00  0.00    +0.000 C 
ENDBRANCH  42  43
ENDBRANCH  17  42
ENDBRANCH  15  17
ENDBRANCH  12  13
BRANCH  12  46
ATOM     46  CB  LEU A   6      -7.377  -3.429  12.318  0.00  0.00    +0.029 C 
BRANCH  46  47
ATOM     47  CG  LEU A   6      -8.169  -2.158  11.956  0.00  0.00    +0.002 C 
ATOM     48  CD2 LEU A   6      -7.358  -0.973  12.436  0.00  0.00    +0.000 C 
ATOM     49  CD1 LEU A   6      -8.482  -2.036  10.479  0.00  0.00    +0.000 C 
ENDBRANCH  46  47
ENDBRANCH  12  46
ENDBRANCH   9  12
ENDBRANCH   3   8
BRANCH   1  50
ATOM     50  CA  TYR A   4     -14.100  -2.475  10.711  0.00  0.00    +0.153 C 
BRANCH  50  52
ATOM     51  C   PRO A   3     -15.279  -0.368  10.393  0.00  0.00    +0.241 C 
ATOM     52  N   TYR A   4     -14.150  -1.021  10.698  0.00  0.00    -0.297 N 
ATOM     53  H   TYR A   4     -13.293  -0.479  10.930  0.00  0.00    +0.150 HD
ATOM     54  O   PRO A   3     -16.313  -0.956  10.052  0.00  0.00    -0.273 OA
BRANCH  51  58
ATOM     55  C   CYS A   2     -13.984   1.736  12.605  0.00  0.00    +0.245 C 
ATOM     56  O   CYS A   2     -14.822   1.207  13.278  0.00  0.00    -0.273 OA
ATOM     57  N   PRO A   3     -14.059   1.686  11.236  0.00  0.00    -0.272 N 
ATOM     58  CA  PRO A   3     -15.225   1.146  10.486  0.00  0.00    +0.152 C 
ATOM     59  CB  PRO A   3     -15.050   1.729   9.076  0.00  0.00    +0.031 C 
ATOM     60  CG  PRO A   3     -13.598   2.061   8.999  0.00  0.00    +0.024 C 
ATOM     61  CD  PRO A   3     -13.120   2.389  10.367  0.00  0.00    +0.094 C 
BRANCH  55  62
ATOM     62  CA  CYS A   2     -12.793   2.451  13.274  0.00  0.00    +0.161 C 
BRANCH  62  64
ATOM     63  C   ASP A   1     -13.684   4.421  14.448  0.00  0.00    +0.239 C 
ATOM     64  N   CYS A   2     -13.199   3.180  14.475  0.00  0.00    -0.296 N 
ATOM     65  H   CYS A   2     -13.105   2.706  15.396  0.00  0.00    +0.150 HD
ATOM     66  O   ASP A   1     -13.684   5.112  13.426  0.00  0.00    -0.274 OA
BRANCH  63  67
ATOM     67  CA  ASP A   1     -14.160   5.002  15.771  0.00  0.00    +0.156 C 
BRANCH  67  68
ATOM     68  N   ASP A   1     -14.318   4.014  16.845  0.00  0.00    -0.238 NA
ATOM     69  H   ASP A   1     -13.625   3.986  17.620  0.00  0.00    +0.142 HD
ENDBRANCH  67  68
BRANCH  67  70
ATOM     70  CB  ASP A   1     -13.195   6.073  16.225  0.00  0.00    +0.140 C 
BRANCH  70  71
ATOM     71  CG  ASP A   1     -13.728   6.873  17.422  0.00  0.00    +0.367 C 
ATOM     72  OD2 ASP A   1     -13.016   7.069  18.434  0.00  0.00    -0.246 OA
ATOM     73  OD1 ASP A   1     -14.900   7.318  17.350  0.00  0.00    -0.246 OA
ENDBRANCH  70  71
ENDBRANCH  67  70
ENDBRANCH  63  67
ENDBRANCH  62  64
BRANCH  62  74
ATOM     74  CB  CYS A   2     -11.830   1.387  13.782  0.00  0.00    +0.098 C 
ATOM     75  SG  CYS A   2     -10.607   0.912  12.573  0.00  0.00    -0.080 S 
ENDBRANCH  62  74
ENDBRANCH  55  62
ENDBRANCH  51  58
ENDBRANCH  50  52
BRANCH  50  76
ATOM     76  CB  TYR A   4     -14.094  -3.084   9.283  0.00  0.00    +0.055 C 
BRANCH  76  77
ATOM     77  CG  TYR A   4     -13.305  -2.239   8.299  0.00  0.00    -0.020 A 
ATOM     78  CD2 TYR A   4     -11.943  -2.049   8.468  0.00  0.00    -0.001 A 
ATOM     79  CE2 TYR A   4     -11.199  -1.259   7.566  0.00  0.00    +0.036 A 
ATOM     80  CZ  TYR A   4     -11.840  -0.640   6.515  0.00  0.00    +0.134 A 
ATOM     81  CE1 TYR A   4     -13.207  -0.819   6.308  0.00  0.00    +0.036 A 
ATOM     82  CD1 TYR A   4     -13.939  -1.619   7.222  0.00  0.00    -0.001 A 
BRANCH  80  83
ATOM     83  OH  TYR A   4     -11.123   0.118   5.597  0.00  0.00    -0.506 OA
ATOM     84  HH  TYR A   4     -11.743   0.484   4.917  0.00  0.00    +0.292 HD
ENDBRANCH  80  83
ENDBRANCH  76  77
ENDBRANCH  50  76
ENDBRANCH   1  50
TORSDOF 30
REMARK  Name = ../refined-set-2016/3slz/3slz_pocket.pdb
REMARK  253 active torsions:
REMARK  status: ('A' for Active; 'I' for Inactive)
REMARK    1  A    between atoms: _2  and  _3
REMARK    2  A    between atoms: _9  and  _10
REMARK    3  A    between atoms: _15  and  _17
REMARK    4  A    between atoms: _17  and  _18
REMARK    5  A    between atoms: _17  and  _20
REMARK    6  A    between atoms: _20  and  _21
REMARK    7  A    between atoms: _24  and  _26
REMARK    8  A    between atoms: _26  and  _27
REMARK    9  A    between atoms: _26  and  _29
REMARK   10  A    between atoms: _32  and  _34
REMARK   11  A    between atoms: _34  and  _35
REMARK   12  A    between atoms: _34  and  _37
REMARK   13  A    between atoms: _37  and  _38
REMARK   14  A    between atoms: _41  and  _43
REMARK   15  A    between atoms: _43  and  _44
REMARK   16  A    between atoms: _43  and  _46
REMARK   17  A    between atoms: _46  and  _47
REMARK   18  A    between atoms: _50  and  _52
REMARK   19  A    between atoms: _52  and  _53
REMARK   20  A    between atoms: _55  and  _57
REMARK   21  A    between atoms: _57  and  _58
REMARK   22  A    between atoms: _61  and  _63
REMARK   23  A    between atoms: _63  and  _64
REMARK   24  A    between atoms: _63  and  _66
REMARK   25  A    between atoms: _66  and  _67
REMARK   26  A    between atoms: _67  and  _68
REMARK   27  A    between atoms: _73  and  _75
REMARK   28  A    between atoms: _75  and  _76
REMARK   29  A    between atoms: _75  and  _78
REMARK   30  A    between atoms: _78  and  _79
REMARK   31  A    between atoms: _84  and  _86
REMARK   32  A    between atoms: _86  and  _87
REMARK   33  A    between atoms: _86  and  _89
REMARK   34  A    between atoms: _89  and  _90
REMARK   35  A    between atoms: _92  and  _94
REMARK   36  A    between atoms: _94  and  _95
REMARK   37  A    between atoms: _94  and  _97
REMARK   38  A    between atoms: _100  and  _102
REMARK   39  A    between atoms: _102  and  _103
REMARK   40  A    between atoms: _102  and  _105
REMARK   41  A    between atoms: _105  and  _106
REMARK   42  A    between atoms: _108  and  _110
REMARK   43  A    between atoms: _110  and  _111
REMARK   44  A    between atoms: _114  and  _116
REMARK   45  A    between atoms: _116  and  _117
REMARK   46  A    between atoms: _116  and  _119
REMARK   47  A    between atoms: _119  and  _120
REMARK   48  A    between atoms: _130  and  _132
REMARK   49  A    between atoms: _132  and  _133
REMARK   50  A    between atoms: _132  and  _135
REMARK   51  A    between atoms: _138  and  _140
REMARK   52  A    between atoms: _140  and  _141
REMARK   53  A    between atoms: _140  and  _143
REMARK   54  A    between atoms: _143  and  _144
REMARK   55  A    between atoms: _144  and  _145
REMARK   56  A    between atoms: _150  and  _152
REMARK   57  A    between atoms: _152  and  _153
REMARK   58  A    between atoms: _155  and  _157
REMARK   59  A    between atoms: _157  and  _158
REMARK   60  A    between atoms: _161  and  _163
REMARK   61  A    between atoms: _163  and  _164
REMARK   62  A    between atoms: _163  and  _166
REMARK   63  A    between atoms: _166  and  _167
REMARK   64  A    between atoms: _170  and  _172
REMARK   65  A    between atoms: _172  and  _173
REMARK   66  A    between atoms: _175  and  _177
REMARK   67  A    between atoms: _177  and  _178
REMARK   68  A    between atoms: _180  and  _182
REMARK   69  A    between atoms: _182  and  _183
REMARK   70  A    between atoms: _182  and  _185
REMARK   71  A    between atoms: _185  and  _186
REMARK   72  A    between atoms: _186  and  _187
REMARK   73  A    between atoms: _187  and  _188
REMARK   74  A    between atoms: _188  and  _189
REMARK   75  A    between atoms: _193  and  _195
REMARK   76  A    between atoms: _195  and  _196
REMARK   77  A    between atoms: _195  and  _198
REMARK   78  A    between atoms: _198  and  _199
REMARK   79  A    between atoms: _204  and  _205
REMARK   80  A    between atoms: _207  and  _209
REMARK   81  A    between atoms: _209  and  _210
REMARK   82  A    between atoms: _209  and  _212
REMARK   83  A    between atoms: _212  and  _213
REMARK   84  A    between atoms: _223  and  _225
REMARK   85  A    between atoms: _225  and  _226
REMARK   86  A    between atoms: _225  and  _228
REMARK   87  A    between atoms: _228  and  _229
REMARK   88  A    between atoms: _232  and  _234
REMARK   89  A    between atoms: _234  and  _235
REMARK   90  A    between atoms: _234  and  _237
REMARK   91  A    between atoms: _240  and  _242
REMARK   92  A    between atoms: _242  and  _243
REMARK   93  A    between atoms: _242  and  _245
REMARK   94  A    between atoms: _245  and  _246
REMARK   95  A    between atoms: _249  and  _251
REMARK   96  A    between atoms: _251  and  _252
REMARK   97  A    between atoms: _251  and  _254
REMARK   98  A    between atoms: _257  and  _258
REMARK   99  A    between atoms: _263  and  _265
REMARK  100  A    between atoms: _265  and  _266
REMARK  101  A    between atoms: _265  and  _268
REMARK  102  A    between atoms: _268  and  _269
REMARK  103  A    between atoms: _274  and  _275
REMARK  104  A    between atoms: _278  and  _279
REMARK  105  A    between atoms: _284  and  _286
REMARK  106  A    between atoms: _286  and  _287
REMARK  107  A    between atoms: _286  and  _289
REMARK  108  A    between atoms: _289  and  _290
REMARK  109  A    between atoms: _293  and  _295
REMARK  110  A    between atoms: _295  and  _296
REMARK  111  A    between atoms: _295  and  _298
REMARK  112  A    between atoms: _298  and  _299
REMARK  113  A    between atoms: _302  and  _304
REMARK  114  A    between atoms: _304  and  _305
REMARK  115  A    between atoms: _307  and  _309
REMARK  116  A    between atoms: _309  and  _310
REMARK  117  A    between atoms: _309  and  _312
REMARK  118  A    between atoms: _312  and  _313
REMARK  119  A    between atoms: _313  and  _314
REMARK  120  A    between atoms: _314  and  _315
REMARK  121  A    between atoms: _325  and  _326
REMARK  122  A    between atoms: _331  and  _333
REMARK  123  A    between atoms: _333  and  _334
REMARK  124  A    between atoms: _333  and  _336
REMARK  125  A    between atoms: _336  and  _337
REMARK  126  A    between atoms: _340  and  _342
REMARK  127  A    between atoms: _342  and  _343
REMARK  128  A    between atoms: _342  and  _345
REMARK  129  A    between atoms: _348  and  _350
REMARK  130  A    between atoms: _350  and  _351
REMARK  131  A    between atoms: _350  and  _353
REMARK  132  A    between atoms: _353  and  _354
REMARK  133  A    between atoms: _357  and  _359
REMARK  134  A    between atoms: _359  and  _360
REMARK  135  A    between atoms: _359  and  _362
REMARK  136  A    between atoms: _362  and  _363
REMARK  137  A    between atoms: _366  and  _368
REMARK  138  A    between atoms: _368  and  _369
REMARK  139  A    between atoms: _371  and  _373
REMARK  140  A    between atoms: _373  and  _374
REMARK  141  A    between atoms: _377  and  _379
REMARK  142  A    between atoms: _379  and  _380
REMARK  143  A    between atoms: _379  and  _382
REMARK  144  A    between atoms: _382  and  _383
REMARK  145  A    between atoms: _383  and  _384
REMARK  146  A    between atoms: _389  and  _391
REMARK  147  A    between atoms: _391  and  _392
REMARK  148  A    between atoms: _391  and  _394
REMARK  149  A    between atoms: _394  and  _395
REMARK  150  A    between atoms: _400  and  _402
REMARK  151  A    between atoms: _402  and  _403
REMARK  152  A    between atoms: _402  and  _405
REMARK  153  A    between atoms: _405  and  _406
REMARK  154  A    between atoms: _408  and  _410
REMARK  155  A    between atoms: _410  and  _411
REMARK  156  A    between atoms: _410  and  _413
REMARK  157  A    between atoms: _416  and  _418
REMARK  158  A    between atoms: _418  and  _419
REMARK  159  A    between atoms: _418  and  _421
REMARK  160  A    between atoms: _421  and  _422
REMARK  161  A    between atoms: _424  and  _426
REMARK  162  A    between atoms: _426  and  _427
REMARK  163  A    between atoms: _430  and  _432
REMARK  164  A    between atoms: _432  and  _433
REMARK  165  A    between atoms: _432  and  _435
REMARK  166  A    between atoms: _435  and  _436
REMARK  167  A    between atoms: _446  and  _448
REMARK  168  A    between atoms: _448  and  _449
REMARK  169  A    between atoms: _448  and  _451
REMARK  170  A    between atoms: _454  and  _456
REMARK  171  A    between atoms: _456  and  _457
REMARK  172  A    between atoms: _456  and  _459
REMARK  173  A    between atoms: _459  and  _460
REMARK  174  A    between atoms: _460  and  _461
REMARK  175  A    between atoms: _466  and  _468
REMARK  176  A    between atoms: _468  and  _469
REMARK  177  A    between atoms: _471  and  _473
REMARK  178  A    between atoms: _473  and  _474
REMARK  179  A    between atoms: _477  and  _479
REMARK  180  A    between atoms: _479  and  _480
REMARK  181  A    between atoms: _479  and  _482
REMARK  182  A    between atoms: _482  and  _483
REMARK  183  A    between atoms: _486  and  _488
REMARK  184  A    between atoms: _488  and  _489
REMARK  185  A    between atoms: _491  and  _493
REMARK  186  A    between atoms: _493  and  _494
REMARK  187  A    between atoms: _496  and  _498
REMARK  188  A    between atoms: _498  and  _499
REMARK  189  A    between atoms: _498  and  _501
REMARK  190  A    between atoms: _501  and  _502
REMARK  191  A    between atoms: _502  and  _503
REMARK  192  A    between atoms: _503  and  _504
REMARK  193  A    between atoms: _504  and  _505
REMARK  194  A    between atoms: _509  and  _511
REMARK  195  A    between atoms: _511  and  _512
REMARK  196  A    between atoms: _511  and  _514
REMARK  197  A    between atoms: _514  and  _515
REMARK  198  A    between atoms: _515  and  _516
REMARK  199  A    between atoms: _516  and  _517
REMARK  200  A    between atoms: _526  and  _528
REMARK  201  A    between atoms: _528  and  _529
REMARK  202  A    between atoms: _528  and  _531
REMARK  203  A    between atoms: _531  and  _532
REMARK  204  A    between atoms: _537  and  _538
REMARK  205  A    between atoms: _540  and  _542
REMARK  206  A    between atoms: _542  and  _543
REMARK  207  A    between atoms: _542  and  _545
REMARK  208  A    between atoms: _545  and  _546
REMARK  209  A    between atoms: _556  and  _558
REMARK  210  A    between atoms: _558  and  _559
REMARK  211  A    between atoms: _558  and  _561
REMARK  212  A    between atoms: _561  and  _562
REMARK  213  A    between atoms: _564  and  _566
REMARK  214  A    between atoms: _566  and  _567
REMARK  215  A    between atoms: _566  and  _569
REMARK  216  A    between atoms: _569  and  _570
REMARK  217  A    between atoms: _573  and  _575
REMARK  218  A    between atoms: _575  and  _576
REMARK  219  A    between atoms: _575  and  _578
REMARK  220  A    between atoms: _581  and  _583
REMARK  221  A    between atoms: _583  and  _584
REMARK  222  A    between atoms: _583  and  _586
REMARK  223  A    between atoms: _586  and  _587
REMARK  224  A    between atoms: _590  and  _592
REMARK  225  A    between atoms: _592  and  _593
REMARK  226  A    between atoms: _592  and  _595
REMARK  227  A    between atoms: _598  and  _599
REMARK  228  A    between atoms: _604  and  _606
REMARK  229  A    between atoms: _606  and  _607
REMARK  230  A    between atoms: _606  and  _609
REMARK  231  A    between atoms: _609  and  _610
REMARK  232  A    between atoms: _615  and  _616
REMARK  233  A    between atoms: _619  and  _620
REMARK  234  A    between atoms: _625  and  _627
REMARK  235  A    between atoms: _627  and  _628
REMARK  236  A    between atoms: _627  and  _630
REMARK  237  A    between atoms: _630  and  _631
REMARK  238  A    between atoms: _634  and  _636
REMARK  239  A    between atoms: _636  and  _637
REMARK  240  A    between atoms: _636  and  _639
REMARK  241  A    between atoms: _639  and  _640
REMARK  242  A    between atoms: _643  and  _645
REMARK  243  A    between atoms: _645  and  _646
REMARK  244  A    between atoms: _648  and  _650
REMARK  245  A    between atoms: _650  and  _651
REMARK  246  A    between atoms: _650  and  _653
REMARK  247  A    between atoms: _653  and  _654
REMARK  248  A    between atoms: _654  and  _655
REMARK  249  A    between atoms: _655  and  _656
REMARK  250  A    between atoms: _665  and  _667
REMARK  251  A    between atoms: _667  and  _668
REMARK  252  A    between atoms: _667  and  _670
REMARK  253  A    between atoms: _670  and  _671
REMARK                            x       y       z     vdW  Elec       q    Type
REMARK                         _______ _______ _______ _____ _____    ______ ____
ROOT
ATOM      1  N   PRO A   1       8.557   0.613  11.417  0.00  0.00    -0.258 NA
ATOM      2  CD  PRO A   1       7.289   1.215  11.863  0.00  0.00    +0.094 C 
ATOM      3  CG  PRO A   1       6.581   0.094  12.552  0.00  0.00    +0.018 C 
ATOM      4  CB  PRO A   1       7.404  -1.145  12.501  0.00  0.00    +0.007 C 
ATOM      5  CA  PRO A   1       8.643  -0.817  11.649  0.00  0.00    +0.190 C 
ENDROOT
BRANCH   5   6
ATOM      6  C   PRO A   1       8.596  -1.623  10.377  0.00  0.00    +0.236 C 
ATOM      7  O   PRO A   1       8.165  -1.157   9.349  0.00  0.00    -0.286 OA
ENDBRANCH   5   6
TORSDOF 1
REMARK  Name = ../refined-set-2016/3slz/3slz_pocket.pdb
REMARK  253 active torsions:
REMARK  status: ('A' for Active; 'I' for Inactive)
REMARK    1  A    between atoms: _2  and  _3
REMARK    2  A    between atoms: _9  and  _10
REMARK    3  A    between atoms: _15  and  _17
REMARK    4  A    between atoms: _17  and  _18
REMARK    5  A    between atoms: _17  and  _20
REMARK    6  A    between atoms: _20  and  _21
REMARK    7  A    between atoms: _24  and  _26
REMARK    8  A    between atoms: _26  and  _27
REMARK    9  A    between atoms: _26  and  _29
REMARK   10  A    between atoms: _32  and  _34
REMARK   11  A    between atoms: _34  and  _35
REMARK   12  A    between atoms: _34  and  _37
REMARK   13  A    between atoms: _37  and  _38
REMARK   14  A    between atoms: _41  and  _43
REMARK   15  A    between atoms: _43  and  _44
REMARK   16  A    between atoms: _43  and  _46
REMARK   17  A    between atoms: _46  and  _47
REMARK   18  A    between atoms: _50  and  _52
REMARK   19  A    between atoms: _52  and  _53
REMARK   20  A    between atoms: _55  and  _57
REMARK   21  A    between atoms: _57  and  _58
REMARK   22  A    between atoms: _61  and  _63
REMARK   23  A    between atoms: _63  and  _64
REMARK   24  A    between atoms: _63  and  _66
REMARK   25  A    between atoms: _66  and  _67
REMARK   26  A    between atoms: _67  and  _68
REMARK   27  A    between atoms: _73  and  _75
REMARK   28  A    between atoms: _75  and  _76
REMARK   29  A    between atoms: _75  and  _78
REMARK   30  A    between atoms: _78  and  _79
REMARK   31  A    between atoms: _84  and  _86
REMARK   32  A    between atoms: _86  and  _87
REMARK   33  A    between atoms: _86  and  _89
REMARK   34  A    between atoms: _89  and  _90
REMARK   35  A    between atoms: _92  and  _94
REMARK   36  A    between atoms: _94  and  _95
REMARK   37  A    between atoms: _94  and  _97
REMARK   38  A    between atoms: _100  and  _102
REMARK   39  A    between atoms: _102  and  _103
REMARK   40  A    between atoms: _102  and  _105
REMARK   41  A    between atoms: _105  and  _106
REMARK   42  A    between atoms: _108  and  _110
REMARK   43  A    between atoms: _110  and  _111
REMARK   44  A    between atoms: _114  and  _116
REMARK   45  A    between atoms: _116  and  _117
REMARK   46  A    between atoms: _116  and  _119
REMARK   47  A    between atoms: _119  and  _120
REMARK   48  A    between atoms: _130  and  _132
REMARK   49  A    between atoms: _132  and  _133
REMARK   50  A    between atoms: _132  and  _135
REMARK   51  A    between atoms: _138  and  _140
REMARK   52  A    between atoms: _140  and  _141
REMARK   53  A    between atoms: _140  and  _143
REMARK   54  A    between atoms: _143  and  _144
REMARK   55  A    between atoms: _144  and  _145
REMARK   56  A    between atoms: _150  and  _152
REMARK   57  A    between atoms: _152  and  _153
REMARK   58  A    between atoms: _155  and  _157
REMARK   59  A    between atoms: _157  and  _158
REMARK   60  A    between atoms: _161  and  _163
REMARK   61  A    between atoms: _163  and  _164
REMARK   62  A    between atoms: _163  and  _166
REMARK   63  A    between atoms: _166  and  _167
REMARK   64  A    between atoms: _170  and  _172
REMARK   65  A    between atoms: _172  and  _173
REMARK   66  A    between atoms: _175  and  _177
REMARK   67  A    between atoms: _177  and  _178
REMARK   68  A    between atoms: _180  and  _182
REMARK   69  A    between atoms: _182  and  _183
REMARK   70  A    between atoms: _182  and  _185
REMARK   71  A    between atoms: _185  and  _186
REMARK   72  A    between atoms: _186  and  _187
REMARK   73  A    between atoms: _187  and  _188
REMARK   74  A    between atoms: _188  and  _189
REMARK   75  A    between atoms: _193  and  _195
REMARK   76  A    between atoms: _195  and  _196
REMARK   77  A    between atoms: _195  and  _198
REMARK   78  A    between atoms: _198  and  _199
REMARK   79  A    between atoms: _204  and  _205
REMARK   80  A    between atoms: _207  and  _209
REMARK   81  A    between atoms: _209  and  _210
REMARK   82  A    between atoms: _209  and  _212
REMARK   83  A    between atoms: _212  and  _213
REMARK   84  A    between atoms: _223  and  _225
REMARK   85  A    between atoms: _225  and  _226
REMARK   86  A    between atoms: _225  and  _228
REMARK   87  A    between atoms: _228  and  _229
REMARK   88  A    between atoms: _232  and  _234
REMARK   89  A    between atoms: _234  and  _235
REMARK   90  A    between atoms: _234  and  _237
REMARK   91  A    between atoms: _240  and  _242
REMARK   92  A    between atoms: _242  and  _243
REMARK   93  A    between atoms: _242  and  _245
REMARK   94  A    between atoms: _245  and  _246
REMARK   95  A    between atoms: _249  and  _251
REMARK   96  A    between atoms: _251  and  _252
REMARK   97  A    between atoms: _251  and  _254
REMARK   98  A    between atoms: _257  and  _258
REMARK   99  A    between atoms: _263  and  _265
REMARK  100  A    between atoms: _265  and  _266
REMARK  101  A    between atoms: _265  and  _268
REMARK  102  A    between atoms: _268  and  _269
REMARK  103  A    between atoms: _274  and  _275
REMARK  104  A    between atoms: _278  and  _279
REMARK  105  A    between atoms: _284  and  _286
REMARK  106  A    between atoms: _286  and  _287
REMARK  107  A    between atoms: _286  and  _289
REMARK  108  A    between atoms: _289  and  _290
REMARK  109  A    between atoms: _293  and  _295
REMARK  110  A    between atoms: _295  and  _296
REMARK  111  A    between atoms: _295  and  _298
REMARK  112  A    between atoms: _298  and  _299
REMARK  113  A    between atoms: _302  and  _304
REMARK  114  A    between atoms: _304  and  _305
REMARK  115  A    between atoms: _307  and  _309
REMARK  116  A    between atoms: _309  and  _310
REMARK  117  A    between atoms: _309  and  _312
REMARK  118  A    between atoms: _312  and  _313
REMARK  119  A    between atoms: _313  and  _314
REMARK  120  A    between atoms: _314  and  _315
REMARK  121  A    between atoms: _325  and  _326
REMARK  122  A    between atoms: _331  and  _333
REMARK  123  A    between atoms: _333  and  _334
REMARK  124  A    between atoms: _333  and  _336
REMARK  125  A    between atoms: _336  and  _337
REMARK  126  A    between atoms: _340  and  _342
REMARK  127  A    between atoms: _342  and  _343
REMARK  128  A    between atoms: _342  and  _345
REMARK  129  A    between atoms: _348  and  _350
REMARK  130  A    between atoms: _350  and  _351
REMARK  131  A    between atoms: _350  and  _353
REMARK  132  A    between atoms: _353  and  _354
REMARK  133  A    between atoms: _357  and  _359
REMARK  134  A    between atoms: _359  and  _360
REMARK  135  A    between atoms: _359  and  _362
REMARK  136  A    between atoms: _362  and  _363
REMARK  137  A    between atoms: _366  and  _368
REMARK  138  A    between atoms: _368  and  _369
REMARK  139  A    between atoms: _371  and  _373
REMARK  140  A    between atoms: _373  and  _374
REMARK  141  A    between atoms: _377  and  _379
REMARK  142  A    between atoms: _379  and  _380
REMARK  143  A    between atoms: _379  and  _382
REMARK  144  A    between atoms: _382  and  _383
REMARK  145  A    between atoms: _383  and  _384
REMARK  146  A    between atoms: _389  and  _391
REMARK  147  A    between atoms: _391  and  _392
REMARK  148  A    between atoms: _391  and  _394
REMARK  149  A    between atoms: _394  and  _395
REMARK  150  A    between atoms: _400  and  _402
REMARK  151  A    between atoms: _402  and  _403
REMARK  152  A    between atoms: _402  and  _405
REMARK  153  A    between atoms: _405  and  _406
REMARK  154  A    between atoms: _408  and  _410
REMARK  155  A    between atoms: _410  and  _411
REMARK  156  A    between atoms: _410  and  _413
REMARK  157  A    between atoms: _416  and  _418
REMARK  158  A    between atoms: _418  and  _419
REMARK  159  A    between atoms: _418  and  _421
REMARK  160  A    between atoms: _421  and  _422
REMARK  161  A    between atoms: _424  and  _426
REMARK  162  A    between atoms: _426  and  _427
REMARK  163  A    between atoms: _430  and  _432
REMARK  164  A    between atoms: _432  and  _433
REMARK  165  A    between atoms: _432  and  _435
REMARK  166  A    between atoms: _435  and  _436
REMARK  167  A    between atoms: _446  and  _448
REMARK  168  A    between atoms: _448  and  _449
REMARK  169  A    between atoms: _448  and  _451
REMARK  170  A    between atoms: _454  and  _456
REMARK  171  A    between atoms: _456  and  _457
REMARK  172  A    between atoms: _456  and  _459
REMARK  173  A    between atoms: _459  and  _460
REMARK  174  A    between atoms: _460  and  _461
REMARK  175  A    between atoms: _466  and  _468
REMARK  176  A    between atoms: _468  and  _469
REMARK  177  A    between atoms: _471  and  _473
REMARK  178  A    between atoms: _473  and  _474
REMARK  179  A    between atoms: _477  and  _479
REMARK  180  A    between atoms: _479  and  _480
REMARK  181  A    between atoms: _479  and  _482
REMARK  182  A    between atoms: _482  and  _483
REMARK  183  A    between atoms: _486  and  _488
REMARK  184  A    between atoms: _488  and  _489
REMARK  185  A    between atoms: _491  and  _493
REMARK  186  A    between atoms: _493  and  _494
REMARK  187  A    between atoms: _496  and  _498
REMARK  188  A    between atoms: _498  and  _499
REMARK  189  A    between atoms: _498  and  _501
REMARK  190  A    between atoms: _501  and  _502
REMARK  191  A    between atoms: _502  and  _503
REMARK  192  A    between atoms: _503  and  _504
REMARK  193  A    between atoms: _504  and  _505
REMARK  194  A    between atoms: _509  and  _511
REMARK  195  A    between atoms: _511  and  _512
REMARK  196  A    between atoms: _511  and  _514
REMARK  197  A    between atoms: _514  and  _515
REMARK  198  A    between atoms: _515  and  _516
REMARK  199  A    between atoms: _516  and  _517
REMARK  200  A    between atoms: _526  and  _528
REMARK  201  A    between atoms: _528  and  _529
REMARK  202  A    between atoms: _528  and  _531
REMARK  203  A    between atoms: _531  and  _532
REMARK  204  A    between atoms: _537  and  _538
REMARK  205  A    between atoms: _540  and  _542
REMARK  206  A    between atoms: _542  and  _543
REMARK  207  A    between atoms: _542  and  _545
REMARK  208  A    between atoms: _545  and  _546
REMARK  209  A    between atoms: _556  and  _558
REMARK  210  A    between atoms: _558  and  _559
REMARK  211  A    between atoms: _558  and  _561
REMARK  212  A    between atoms: _561  and  _562
REMARK  213  A    between atoms: _564  and  _566
REMARK  214  A    between atoms: _566  and  _567
REMARK  215  A    between atoms: _566  and  _569
REMARK  216  A    between atoms: _569  and  _570
REMARK  217  A    between atoms: _573  and  _575
REMARK  218  A    between atoms: _575  and  _576
REMARK  219  A    between atoms: _575  and  _578
REMARK  220  A    between atoms: _581  and  _583
REMARK  221  A    between atoms: _583  and  _584
REMARK  222  A    between atoms: _583  and  _586
REMARK  223  A    between atoms: _586  and  _587
REMARK  224  A    between atoms: _590  and  _592
REMARK  225  A    between atoms: _592  and  _593
REMARK  226  A    between atoms: _592  and  _595
REMARK  227  A    between atoms: _598  and  _599
REMARK  228  A    between atoms: _604  and  _606
REMARK  229  A    between atoms: _606  and  _607
REMARK  230  A    between atoms: _606  and  _609
REMARK  231  A    between atoms: _609  and  _610
REMARK  232  A    between atoms: _615  and  _616
REMARK  233  A    between atoms: _619  and  _620
REMARK  234  A    between atoms: _625  and  _627
REMARK  235  A    between atoms: _627  and  _628
REMARK  236  A    between atoms: _627  and  _630
REMARK  237  A    between atoms: _630  and  _631
REMARK  238  A    between atoms: _634  and  _636
REMARK  239  A    between atoms: _636  and  _637
REMARK  240  A    between atoms: _636  and  _639
REMARK  241  A    between atoms: _639  and  _640
REMARK  242  A    between atoms: _643  and  _645
REMARK  243  A    between atoms: _645  and  _646
REMARK  244  A    between atoms: _648  and  _650
REMARK  245  A    between atoms: _650  and  _651
REMARK  246  A    between atoms: _650  and  _653
REMARK  247  A    between atoms: _653  and  _654
REMARK  248  A    between atoms: _654  and  _655
REMARK  249  A    between atoms: _655  and  _656
REMARK  250  A    between atoms: _665  and  _667
REMARK  251  A    between atoms: _667  and  _668
REMARK  252  A    between atoms: _667  and  _670
REMARK  253  A    between atoms: _670  and  _671
REMARK                            x       y       z     vdW  Elec       q    Type
REMARK                         _______ _______ _______ _____ _____    ______ ____
ROOT
ATOM      1  CA  ALA A   6      -3.894   2.286   3.749  0.00  0.00    +0.149 C 
ATOM      2  CB  ALA A   6      -2.522   2.930   3.689  0.00  0.00    +0.031 C 
ENDROOT
BRANCH   1   3
ATOM      3  C   ALA A   6      -4.476   2.126   2.332  0.00  0.00    +0.241 C 
ATOM      4  N   GLN A   7      -5.579   2.845   2.086  0.00  0.00    -0.297 N 
ATOM      5  H   GLN A   7      -5.998   3.424   2.842  0.00  0.00    +0.150 HD
ATOM      6  O   ALA A   6      -3.902   1.464   1.470  0.00  0.00    -0.273 OA
BRANCH   4   7
ATOM      7  CA  GLN A   7      -6.182   2.821   0.794  0.00  0.00    +0.149 C 
BRANCH   7   8
ATOM      8  C   GLN A   7      -5.293   3.504  -0.260  0.00  0.00    +0.241 C 
ATOM      9  N   HIS A   8      -4.528   4.522   0.142  0.00  0.00    -0.297 N 
ATOM     10  H   HIS A   8      -4.585   4.833   1.133  0.00  0.00    +0.150 HD
ATOM     11  O   GLN A   7      -5.346   3.157  -1.426  0.00  0.00    -0.273 OA
BRANCH   9  12
ATOM     12  CA  HIS A   8      -3.635   5.197  -0.743  0.00  0.00    +0.155 C 
BRANCH  12  13
ATOM     13  C   HIS A   8      -2.358   5.562   0.062  0.00  0.00    +0.241 C 
ATOM     14  O   HIS A   8      -2.380   5.616   1.302  0.00  0.00    -0.273 OA
ATOM     15  N   SER A   9      -1.284   5.782  -0.684  0.00  0.00    -0.295 N 
ATOM     16  H   SER A   9      -1.375   5.768  -1.720  0.00  0.00    +0.150 HD
BRANCH  15  17
ATOM     17  CA  SER A   9       0.019   6.042  -0.091  0.00  0.00    +0.178 C 
BRANCH  17  18
ATOM     18  C   SER A   9       0.158   7.460   0.422  0.00  0.00    +0.243 C 
ATOM     19  N   VAL A  10       0.986   7.603   1.430  0.00  0.00    -0.298 N 
ATOM     20  H   VAL A  10       1.610   6.803   1.658  0.00  0.00    +0.150 HD
ATOM     21  O   SER A   9      -0.490   8.420  -0.085  0.00  0.00    -0.273 OA
BRANCH  19  22
ATOM     22  CA  VAL A  10       1.096   8.797   2.251  0.00  0.00    +0.137 C 
BRANCH  22  23
ATOM     23  CB  VAL A  10       0.525   8.470   3.675  0.00  0.00    +0.026 C 
ATOM     24  CG2 VAL A  10       0.802   9.572   4.710  0.00  0.00    +0.002 C 
ATOM     25  CG1 VAL A  10      -0.989   8.167   3.609  0.00  0.00    +0.002 C 
ENDBRANCH  22  23
BRANCH  22  26
ATOM     26  C   VAL A  10       2.536   9.239   2.420  0.00  0.00    +0.227 C 
ATOM     27  O   VAL A  10       3.437   8.435   2.737  0.00  0.00    -0.286 OA
ENDBRANCH  22  26
ENDBRANCH  19  22
ENDBRANCH  17  18
BRANCH  17  28
ATOM     28  CB  SER A   9       1.084   5.693  -1.092  0.00  0.00    +0.166 C 
BRANCH  28  29
ATOM     29  OG  SER A   9       1.102   4.272  -1.335  0.00  0.00    -0.380 OA
ATOM     30  H   SER A   9       0.222   3.988  -1.688  0.00  0.00    +0.211 HD
ENDBRANCH  28  29
ENDBRANCH  17  28
ENDBRANCH  15  17
ENDBRANCH  12  13
BRANCH  12  31
ATOM     31  CB  HIS A   8      -4.335   6.442  -1.308  0.00  0.00    +0.076 C 
BRANCH  31  32
ATOM     32  CG  HIS A   8      -3.741   6.945  -2.584  0.00  0.00    +0.082 A 
ATOM     33  CD2 HIS A   8      -2.676   7.756  -2.806  0.00  0.00    +0.115 A 
ATOM     34  NE2 HIS A   8      -2.525   7.870  -4.173  0.00  0.00    -0.221 NA
ATOM     35  CE1 HIS A   8      -3.456   7.127  -4.770  0.00  0.00    +0.199 A 
ATOM     36  ND1 HIS A   8      -4.185   6.553  -3.833  0.00  0.00    -0.227 NA
ENDBRANCH  31  32
ENDBRANCH  12  31
ENDBRANCH   9  12
ENDBRANCH   7   8
BRANCH   7  37
ATOM     37  CB  GLN A   7      -7.537   3.532   0.900  0.00  0.00    +0.039 C 
BRANCH  37  38
ATOM     38  CG  GLN A   7      -8.373   3.555  -0.425  0.00  0.00    +0.087 C 
BRANCH  38  39
ATOM     39  CD  GLN A   7      -9.706   4.197  -0.163  0.00  0.00    +0.219 C 
ATOM     40  OE1 GLN A   7     -10.242   4.151   0.946  0.00  0.00    -0.275 OA
ATOM     41  NE2 GLN A   7     -10.275   4.800  -1.218  0.00  0.00    -0.329 N 
ATOM     42 HE21 GLN A   7     -11.206   5.253  -1.118  0.00  0.00    +0.145 HD
ATOM     43 HE22 GLN A   7      -9.785   4.814  -2.135  0.00  0.00    +0.145 HD
ENDBRANCH  38  39
ENDBRANCH  37  38
ENDBRANCH   7  37
ENDBRANCH   4   7
ENDBRANCH   1   3
BRANCH   1  46
ATOM     44  C   GLY A   5      -4.706   0.498   5.220  0.00  0.00    +0.243 C 
ATOM     45  O   GLY A   5      -5.652   1.195   5.616  0.00  0.00    -0.273 OA
ATOM     46  N   ALA A   6      -3.805   0.923   4.346  0.00  0.00    -0.297 N 
ATOM     47  H   ALA A   6      -3.023   0.295   4.072  0.00  0.00    +0.150 HD
BRANCH  44  48
ATOM     48  CA  GLY A   5      -4.574  -0.905   5.827  0.00  0.00    +0.176 C 
BRANCH  48  50
ATOM     49  C   THR A   4      -3.403  -2.372   4.206  0.00  0.00    +0.243 C 
ATOM     50  N   GLY A   5      -3.382  -1.628   5.319  0.00  0.00    -0.295 N 
ATOM     51  H   GLY A   5      -2.491  -1.554   5.851  0.00  0.00    +0.150 HD
ATOM     52  O   THR A   4      -4.433  -2.591   3.539  0.00  0.00    -0.273 OA
BRANCH  49  53
ATOM     53  CA  THR A   4      -2.098  -2.997   3.739  0.00  0.00    +0.176 C 
BRANCH  53  55
ATOM     54  C   ASP A   3      -0.549  -1.199   4.187  0.00  0.00    +0.241 C 
ATOM     55  N   THR A   4      -0.938  -2.438   4.413  0.00  0.00    -0.295 N 
ATOM     56  H   THR A   4      -0.405  -3.026   5.086  0.00  0.00    +0.150 HD
ATOM     57  O   ASP A   3      -1.181  -0.439   3.429  0.00  0.00    -0.273 OA
BRANCH  54  58
ATOM     58  CA  ASP A   3       0.641  -0.715   4.984  0.00  0.00    +0.160 C 
BRANCH  58  61
ATOM     59  C   VAL A   2       2.966  -1.447   4.707  0.00  0.00    +0.241 C 
ATOM     60  O   VAL A   2       2.949  -2.118   5.753  0.00  0.00    -0.273 OA
ATOM     61  N   ASP A   3       1.873  -0.830   4.226  0.00  0.00    -0.297 N 
ATOM     62  H   ASP A   3       1.912  -0.418   3.272  0.00  0.00    +0.150 HD
BRANCH  59  63
ATOM     63  CA  VAL A   2       4.267  -1.172   3.985  0.00  0.00    +0.148 C 
BRANCH  63  65
ATOM     64  C   LEU A   1       4.980   0.788   5.250  0.00  0.00    +0.238 C 
ATOM     65  N   VAL A   2       5.122  -0.483   4.927  0.00  0.00    -0.297 N 
ATOM     66  H   VAL A   2       5.892  -1.020   5.375  0.00  0.00    +0.150 HD
ATOM     67  O   LEU A   1       4.150   1.514   4.671  0.00  0.00    -0.274 OA
BRANCH  64  68
ATOM     68  CA  LEU A   1       5.888   1.367   6.308  0.00  0.00    +0.145 C 
BRANCH  68  69
ATOM     69  N   LEU A   1       6.554   2.533   5.710  0.00  0.00    -0.238 NA
ATOM     70  H   LEU A   1       6.262   3.489   5.996  0.00  0.00    +0.142 HD
ENDBRANCH  68  69
BRANCH  68  71
ATOM     71  CB  LEU A   1       5.036   1.817   7.502  0.00  0.00    +0.026 C 
BRANCH  71  72
ATOM     72  CG  LEU A   1       4.217   0.704   8.133  0.00  0.00    +0.002 C 
ATOM     73  CD2 LEU A   1       3.403   1.325   9.285  0.00  0.00    +0.000 C 
ATOM     74  CD1 LEU A   1       5.003  -0.482   8.669  0.00  0.00    +0.000 C 
ENDBRANCH  71  72
ENDBRANCH  68  71
ENDBRANCH  64  68
ENDBRANCH  63  65
BRANCH  63  75
ATOM     75  CB  VAL A   2       4.938  -2.464   3.523  0.00  0.00    +0.027 C 
ATOM     76  CG2 VAL A   2       3.930  -3.421   2.875  0.00  0.00    +0.002 C 
ATOM     77  CG1 VAL A   2       6.105  -2.085   2.584  0.00  0.00    +0.002 C 
ENDBRANCH  63  75
ENDBRANCH  59  63
ENDBRANCH  58  61
BRANCH  58  78
ATOM     78  CB  ASP A   3       0.454   0.762   5.388  0.00  0.00    +0.143 C 
BRANCH  78  79
ATOM     79  CG  ASP A   3      -0.689   0.952   6.311  0.00  0.00    +0.367 C 
ATOM     80  OD2 ASP A   3      -0.928   2.128   6.746  0.00  0.00    -0.246 OA
ATOM     81  OD1 ASP A   3      -1.344  -0.025   6.706  0.00  0.00    -0.246 OA
ENDBRANCH  78  79
ENDBRANCH  58  78
ENDBRANCH  54  58
ENDBRANCH  53  55
BRANCH  53  82
ATOM     82  CB  THR A   4      -2.172  -4.510   3.895  0.00  0.00    +0.137 C 
ATOM     83  CG2 THR A   4      -0.955  -5.143   3.242  0.00  0.00    +0.034 C 
BRANCH  82  84
ATOM     84  OG1 THR A   4      -2.211  -4.848   5.285  0.00  0.00    -0.382 OA
ATOM     85  HG1 THR A   4      -3.008  -4.434   5.702  0.00  0.00    +0.210 HD
ENDBRANCH  82  84
ENDBRANCH  53  82
ENDBRANCH  49  53
ENDBRANCH  48  50
ENDBRANCH  44  48
ENDBRANCH   1  46
TORSDOF 35
REMARK  Name = ../refined-set-2016/3slz/3slz_pocket.pdb
REMARK  253 active torsions:
REMARK  status: ('A' for Active; 'I' for Inactive)
REMARK    1  A    between atoms: _2  and  _3
REMARK    2  A    between atoms: _9  and  _10
REMARK    3  A    between atoms: _15  and  _17
REMARK    4  A    between atoms: _17  and  _18
REMARK    5  A    between atoms: _17  and  _20
REMARK    6  A    between atoms: _20  and  _21
REMARK    7  A    between atoms: _24  and  _26
REMARK    8  A    between atoms: _26  and  _27
REMARK    9  A    between atoms: _26  and  _29
REMARK   10  A    between atoms: _32  and  _34
REMARK   11  A    between atoms: _34  and  _35
REMARK   12  A    between atoms: _34  and  _37
REMARK   13  A    between atoms: _37  and  _38
REMARK   14  A    between atoms: _41  and  _43
REMARK   15  A    between atoms: _43  and  _44
REMARK   16  A    between atoms: _43  and  _46
REMARK   17  A    between atoms: _46  and  _47
REMARK   18  A    between atoms: _50  and  _52
REMARK   19  A    between atoms: _52  and  _53
REMARK   20  A    between atoms: _55  and  _57
REMARK   21  A    between atoms: _57  and  _58
REMARK   22  A    between atoms: _61  and  _63
REMARK   23  A    between atoms: _63  and  _64
REMARK   24  A    between atoms: _63  and  _66
REMARK   25  A    between atoms: _66  and  _67
REMARK   26  A    between atoms: _67  and  _68
REMARK   27  A    between atoms: _73  and  _75
REMARK   28  A    between atoms: _75  and  _76
REMARK   29  A    between atoms: _75  and  _78
REMARK   30  A    between atoms: _78  and  _79
REMARK   31  A    between atoms: _84  and  _86
REMARK   32  A    between atoms: _86  and  _87
REMARK   33  A    between atoms: _86  and  _89
REMARK   34  A    between atoms: _89  and  _90
REMARK   35  A    between atoms: _92  and  _94
REMARK   36  A    between atoms: _94  and  _95
REMARK   37  A    between atoms: _94  and  _97
REMARK   38  A    between atoms: _100  and  _102
REMARK   39  A    between atoms: _102  and  _103
REMARK   40  A    between atoms: _102  and  _105
REMARK   41  A    between atoms: _105  and  _106
REMARK   42  A    between atoms: _108  and  _110
REMARK   43  A    between atoms: _110  and  _111
REMARK   44  A    between atoms: _114  and  _116
REMARK   45  A    between atoms: _116  and  _117
REMARK   46  A    between atoms: _116  and  _119
REMARK   47  A    between atoms: _119  and  _120
REMARK   48  A    between atoms: _130  and  _132
REMARK   49  A    between atoms: _132  and  _133
REMARK   50  A    between atoms: _132  and  _135
REMARK   51  A    between atoms: _138  and  _140
REMARK   52  A    between atoms: _140  and  _141
REMARK   53  A    between atoms: _140  and  _143
REMARK   54  A    between atoms: _143  and  _144
REMARK   55  A    between atoms: _144  and  _145
REMARK   56  A    between atoms: _150  and  _152
REMARK   57  A    between atoms: _152  and  _153
REMARK   58  A    between atoms: _155  and  _157
REMARK   59  A    between atoms: _157  and  _158
REMARK   60  A    between atoms: _161  and  _163
REMARK   61  A    between atoms: _163  and  _164
REMARK   62  A    between atoms: _163  and  _166
REMARK   63  A    between atoms: _166  and  _167
REMARK   64  A    between atoms: _170  and  _172
REMARK   65  A    between atoms: _172  and  _173
REMARK   66  A    between atoms: _175  and  _177
REMARK   67  A    between atoms: _177  and  _178
REMARK   68  A    between atoms: _180  and  _182
REMARK   69  A    between atoms: _182  and  _183
REMARK   70  A    between atoms: _182  and  _185
REMARK   71  A    between atoms: _185  and  _186
REMARK   72  A    between atoms: _186  and  _187
REMARK   73  A    between atoms: _187  and  _188
REMARK   74  A    between atoms: _188  and  _189
REMARK   75  A    between atoms: _193  and  _195
REMARK   76  A    between atoms: _195  and  _196
REMARK   77  A    between atoms: _195  and  _198
REMARK   78  A    between atoms: _198  and  _199
REMARK   79  A    between atoms: _204  and  _205
REMARK   80  A    between atoms: _207  and  _209
REMARK   81  A    between atoms: _209  and  _210
REMARK   82  A    between atoms: _209  and  _212
REMARK   83  A    between atoms: _212  and  _213
REMARK   84  A    between atoms: _223  and  _225
REMARK   85  A    between atoms: _225  and  _226
REMARK   86  A    between atoms: _225  and  _228
REMARK   87  A    between atoms: _228  and  _229
REMARK   88  A    between atoms: _232  and  _234
REMARK   89  A    between atoms: _234  and  _235
REMARK   90  A    between atoms: _234  and  _237
REMARK   91  A    between atoms: _240  and  _242
REMARK   92  A    between atoms: _242  and  _243
REMARK   93  A    between atoms: _242  and  _245
REMARK   94  A    between atoms: _245  and  _246
REMARK   95  A    between atoms: _249  and  _251
REMARK   96  A    between atoms: _251  and  _252
REMARK   97  A    between atoms: _251  and  _254
REMARK   98  A    between atoms: _257  and  _258
REMARK   99  A    between atoms: _263  and  _265
REMARK  100  A    between atoms: _265  and  _266
REMARK  101  A    between atoms: _265  and  _268
REMARK  102  A    between atoms: _268  and  _269
REMARK  103  A    between atoms: _274  and  _275
REMARK  104  A    between atoms: _278  and  _279
REMARK  105  A    between atoms: _284  and  _286
REMARK  106  A    between atoms: _286  and  _287
REMARK  107  A    between atoms: _286  and  _289
REMARK  108  A    between atoms: _289  and  _290
REMARK  109  A    between atoms: _293  and  _295
REMARK  110  A    between atoms: _295  and  _296
REMARK  111  A    between atoms: _295  and  _298
REMARK  112  A    between atoms: _298  and  _299
REMARK  113  A    between atoms: _302  and  _304
REMARK  114  A    between atoms: _304  and  _305
REMARK  115  A    between atoms: _307  and  _309
REMARK  116  A    between atoms: _309  and  _310
REMARK  117  A    between atoms: _309  and  _312
REMARK  118  A    between atoms: _312  and  _313
REMARK  119  A    between atoms: _313  and  _314
REMARK  120  A    between atoms: _314  and  _315
REMARK  121  A    between atoms: _325  and  _326
REMARK  122  A    between atoms: _331  and  _333
REMARK  123  A    between atoms: _333  and  _334
REMARK  124  A    between atoms: _333  and  _336
REMARK  125  A    between atoms: _336  and  _337
REMARK  126  A    between atoms: _340  and  _342
REMARK  127  A    between atoms: _342  and  _343
REMARK  128  A    between atoms: _342  and  _345
REMARK  129  A    between atoms: _348  and  _350
REMARK  130  A    between atoms: _350  and  _351
REMARK  131  A    between atoms: _350  and  _353
REMARK  132  A    between atoms: _353  and  _354
REMARK  133  A    between atoms: _357  and  _359
REMARK  134  A    between atoms: _359  and  _360
REMARK  135  A    between atoms: _359  and  _362
REMARK  136  A    between atoms: _362  and  _363
REMARK  137  A    between atoms: _366  and  _368
REMARK  138  A    between atoms: _368  and  _369
REMARK  139  A    between atoms: _371  and  _373
REMARK  140  A    between atoms: _373  and  _374
REMARK  141  A    between atoms: _377  and  _379
REMARK  142  A    between atoms: _379  and  _380
REMARK  143  A    between atoms: _379  and  _382
REMARK  144  A    between atoms: _382  and  _383
REMARK  145  A    between atoms: _383  and  _384
REMARK  146  A    between atoms: _389  and  _391
REMARK  147  A    between atoms: _391  and  _392
REMARK  148  A    between atoms: _391  and  _394
REMARK  149  A    between atoms: _394  and  _395
REMARK  150  A    between atoms: _400  and  _402
REMARK  151  A    between atoms: _402  and  _403
REMARK  152  A    between atoms: _402  and  _405
REMARK  153  A    between atoms: _405  and  _406
REMARK  154  A    between atoms: _408  and  _410
REMARK  155  A    between atoms: _410  and  _411
REMARK  156  A    between atoms: _410  and  _413
REMARK  157  A    between atoms: _416  and  _418
REMARK  158  A    between atoms: _418  and  _419
REMARK  159  A    between atoms: _418  and  _421
REMARK  160  A    between atoms: _421  and  _422
REMARK  161  A    between atoms: _424  and  _426
REMARK  162  A    between atoms: _426  and  _427
REMARK  163  A    between atoms: _430  and  _432
REMARK  164  A    between atoms: _432  and  _433
REMARK  165  A    between atoms: _432  and  _435
REMARK  166  A    between atoms: _435  and  _436
REMARK  167  A    between atoms: _446  and  _448
REMARK  168  A    between atoms: _448  and  _449
REMARK  169  A    between atoms: _448  and  _451
REMARK  170  A    between atoms: _454  and  _456
REMARK  171  A    between atoms: _456  and  _457
REMARK  172  A    between atoms: _456  and  _459
REMARK  173  A    between atoms: _459  and  _460
REMARK  174  A    between atoms: _460  and  _461
REMARK  175  A    between atoms: _466  and  _468
REMARK  176  A    between atoms: _468  and  _469
REMARK  177  A    between atoms: _471  and  _473
REMARK  178  A    between atoms: _473  and  _474
REMARK  179  A    between atoms: _477  and  _479
REMARK  180  A    between atoms: _479  and  _480
REMARK  181  A    between atoms: _479  and  _482
REMARK  182  A    between atoms: _482  and  _483
REMARK  183  A    between atoms: _486  and  _488
REMARK  184  A    between atoms: _488  and  _489
REMARK  185  A    between atoms: _491  and  _493
REMARK  186  A    between atoms: _493  and  _494
REMARK  187  A    between atoms: _496  and  _498
REMARK  188  A    between atoms: _498  and  _499
REMARK  189  A    between atoms: _498  and  _501
REMARK  190  A    between atoms: _501  and  _502
REMARK  191  A    between atoms: _502  and  _503
REMARK  192  A    between atoms: _503  and  _504
REMARK  193  A    between atoms: _504  and  _505
REMARK  194  A    between atoms: _509  and  _511
REMARK  195  A    between atoms: _511  and  _512
REMARK  196  A    between atoms: _511  and  _514
REMARK  197  A    between atoms: _514  and  _515
REMARK  198  A    between atoms: _515  and  _516
REMARK  199  A    between atoms: _516  and  _517
REMARK  200  A    between atoms: _526  and  _528
REMARK  201  A    between atoms: _528  and  _529
REMARK  202  A    between atoms: _528  and  _531
REMARK  203  A    between atoms: _531  and  _532
REMARK  204  A    between atoms: _537  and  _538
REMARK  205  A    between atoms: _540  and  _542
REMARK  206  A    between atoms: _542  and  _543
REMARK  207  A    between atoms: _542  and  _545
REMARK  208  A    between atoms: _545  and  _546
REMARK  209  A    between atoms: _556  and  _558
REMARK  210  A    between atoms: _558  and  _559
REMARK  211  A    between atoms: _558  and  _561
REMARK  212  A    between atoms: _561  and  _562
REMARK  213  A    between atoms: _564  and  _566
REMARK  214  A    between atoms: _566  and  _567
REMARK  215  A    between atoms: _566  and  _569
REMARK  216  A    between atoms: _569  and  _570
REMARK  217  A    between atoms: _573  and  _575
REMARK  218  A    between atoms: _575  and  _576
REMARK  219  A    between atoms: _575  and  _578
REMARK  220  A    between atoms: _581  and  _583
REMARK  221  A    between atoms: _583  and  _584
REMARK  222  A    between atoms: _583  and  _586
REMARK  223  A    between atoms: _586  and  _587
REMARK  224  A    between atoms: _590  and  _592
REMARK  225  A    between atoms: _592  and  _593
REMARK  226  A    between atoms: _592  and  _595
REMARK  227  A    between atoms: _598  and  _599
REMARK  228  A    between atoms: _604  and  _606
REMARK  229  A    between atoms: _606  and  _607
REMARK  230  A    between atoms: _606  and  _609
REMARK  231  A    between atoms: _609  and  _610
REMARK  232  A    between atoms: _615  and  _616
REMARK  233  A    between atoms: _619  and  _620
REMARK  234  A    between atoms: _625  and  _627
REMARK  235  A    between atoms: _627  and  _628
REMARK  236  A    between atoms: _627  and  _630
REMARK  237  A    between atoms: _630  and  _631
REMARK  238  A    between atoms: _634  and  _636
REMARK  239  A    between atoms: _636  and  _637
REMARK  240  A    between atoms: _636  and  _639
REMARK  241  A    between atoms: _639  and  _640
REMARK  242  A    between atoms: _643  and  _645
REMARK  243  A    between atoms: _645  and  _646
REMARK  244  A    between atoms: _648  and  _650
REMARK  245  A    between atoms: _650  and  _651
REMARK  246  A    between atoms: _650  and  _653
REMARK  247  A    between atoms: _653  and  _654
REMARK  248  A    between atoms: _654  and  _655
REMARK  249  A    between atoms: _655  and  _656
REMARK  250  A    between atoms: _665  and  _667
REMARK  251  A    between atoms: _667  and  _668
REMARK  252  A    between atoms: _667  and  _670
REMARK  253  A    between atoms: _670  and  _671
REMARK                            x       y       z     vdW  Elec       q    Type
REMARK                         _______ _______ _______ _____ _____    ______ ____
ROOT
ATOM      1  C   ALA A   7      -9.243   5.710  14.343  0.00  0.00    +0.241 C 
ATOM      2  O   ALA A   7     -10.185   5.180  14.966  0.00  0.00    -0.273 OA
ATOM      3  N   THR A   8      -8.891   6.990  14.538  0.00  0.00    -0.295 N 
ATOM      4  H   THR A   8      -8.242   7.434  13.858  0.00  0.00    +0.150 HD
ENDROOT
BRANCH   1   5
ATOM      5  CA  ALA A   7      -8.504   4.887  13.307  0.00  0.00    +0.149 C 
ATOM      6  CB  ALA A   7      -7.417   4.076  13.949  0.00  0.00    +0.031 C 
BRANCH   5   8
ATOM      7  C   GLY A   6      -8.721   6.435  11.450  0.00  0.00    +0.243 C 
ATOM      8  N   ALA A   7      -7.927   5.744  12.264  0.00  0.00    -0.297 N 
ATOM      9  H   ALA A   7      -6.894   5.811  12.161  0.00  0.00    +0.150 HD
ATOM     10  O   GLY A   6      -9.944   6.476  11.572  0.00  0.00    -0.273 OA
BRANCH   7  11
ATOM     11  CA  GLY A   6      -8.005   7.213  10.361  0.00  0.00    +0.176 C 
BRANCH  11  13
ATOM     12  C   GLN A   5      -9.371   7.655   8.390  0.00  0.00    +0.241 C 
ATOM     13  N   GLY A   6      -8.969   8.003   9.601  0.00  0.00    -0.295 N 
ATOM     14  H   GLY A   6      -9.353   8.870  10.027  0.00  0.00    +0.150 HD
ATOM     15  O   GLN A   5      -8.910   6.683   7.773  0.00  0.00    -0.273 OA
BRANCH  12  16
ATOM     16  CA  GLN A   5     -10.459   8.504   7.782  0.00  0.00    +0.149 C 
BRANCH  16  19
ATOM     17  C   VAL A   4      -9.490  10.349   6.529  0.00  0.00    +0.241 C 
ATOM     18  O   VAL A   4      -9.590  11.116   7.490  0.00  0.00    -0.273 OA
ATOM     19  N   GLN A   5      -9.965   9.110   6.553  0.00  0.00    -0.297 N 
ATOM     20  H   GLN A   5      -9.985   8.558   5.672  0.00  0.00    +0.150 HD
BRANCH  17  21
ATOM     21  CA  VAL A   4      -8.865  10.797   5.223  0.00  0.00    +0.149 C 
BRANCH  21  23
ATOM     22  C   TRP A   3     -10.320  11.948   3.648  0.00  0.00    +0.241 C 
ATOM     23  N   VAL A   4      -9.572  12.002   4.738  0.00  0.00    -0.297 N 
ATOM     24  H   VAL A   4      -9.481  12.898   5.257  0.00  0.00    +0.150 HD
ATOM     25  O   TRP A   3     -10.430  10.941   2.937  0.00  0.00    -0.273 OA
BRANCH  22  26
ATOM     26  CA  TRP A   3     -11.023  13.269   3.273  0.00  0.00    +0.153 C 
BRANCH  26  29
ATOM     27  C   ALA A   2      -9.476  14.200   1.659  0.00  0.00    +0.241 C 
ATOM     28  O   ALA A   2      -8.724  14.613   2.548  0.00  0.00    -0.273 OA
ATOM     29  N   TRP A   3     -10.649  13.622   1.929  0.00  0.00    -0.297 N 
ATOM     30  H   TRP A   3     -11.308  13.422   1.150  0.00  0.00    +0.150 HD
BRANCH  27  31
ATOM     31  CA  ALA A   2      -9.068  14.195   0.216  0.00  0.00    +0.149 C 
ATOM     32  CB  ALA A   2      -8.236  12.893  -0.021  0.00  0.00    +0.031 C 
BRANCH  31  34
ATOM     33  C   SER A   1      -8.524  16.271  -1.023  0.00  0.00    +0.241 C 
ATOM     34  N   ALA A   2      -8.257  15.370  -0.062  0.00  0.00    -0.297 N 
ATOM     35  H   ALA A   2      -7.411  15.524   0.524  0.00  0.00    +0.150 HD
ATOM     36  O   SER A   1      -9.424  16.078  -1.862  0.00  0.00    -0.274 OA
BRANCH  33  37
ATOM     37  CA  SER A   1      -7.644  17.489  -1.026  0.00  0.00    +0.174 C 
BRANCH  37  38
ATOM     38  N   SER A   1      -7.808  18.169  -2.298  0.00  0.00    -0.236 NA
ATOM     39  H   SER A   1      -8.770  18.333  -2.658  0.00  0.00    +0.142 HD
ENDBRANCH  37  38
BRANCH  37  40
ATOM     40  CB  SER A   1      -7.934  18.432   0.137  0.00  0.00    +0.163 C 
BRANCH  40  41
ATOM     41  OG  SER A   1      -9.319  18.841   0.106  0.00  0.00    -0.380 OA
ATOM     42  H   SER A   1      -9.498  19.452   0.864  0.00  0.00    +0.211 HD
ENDBRANCH  40  41
ENDBRANCH  37  40
ENDBRANCH  33  37
ENDBRANCH  31  34
ENDBRANCH  27  31
ENDBRANCH  26  29
BRANCH  26  43
ATOM     43  CB  TRP A   3     -12.539  13.016   3.334  0.00  0.00    +0.057 C 
BRANCH  43  44
ATOM     44  CG  TRP A   3     -12.952  12.749   4.681  0.00  0.00    -0.002 A 
ATOM     45  CD2 TRP A   3     -13.342  13.709   5.641  0.00  0.00    +0.013 A 
ATOM     46  CE2 TRP A   3     -13.614  13.028   6.843  0.00  0.00    +0.056 A 
ATOM     47  CZ2 TRP A   3     -14.064  13.697   7.991  0.00  0.00    +0.017 A 
ATOM     48  CH2 TRP A   3     -14.197  15.063   7.917  0.00  0.00    +0.001 A 
ATOM     49  CZ3 TRP A   3     -13.909  15.757   6.749  0.00  0.00    +0.000 A 
ATOM     50  NE1 TRP A   3     -13.429  11.690   6.611  0.00  0.00    -0.352 N 
ATOM     51  HE1 TRP A   3     -13.566  10.928   7.305  0.00  0.00    +0.166 HD
ATOM     52  CE3 TRP A   3     -13.482  15.108   5.613  0.00  0.00    +0.001 A 
ATOM     53  CD1 TRP A   3     -13.031  11.525   5.302  0.00  0.00    +0.068 A 
ENDBRANCH  43  44
ENDBRANCH  26  43
ENDBRANCH  22  26
ENDBRANCH  21  23
BRANCH  21  54
ATOM     54  CB  VAL A   4      -7.355  11.076   5.423  0.00  0.00    +0.027 C 
ATOM     55  CG2 VAL A   4      -6.626   9.833   6.048  0.00  0.00    +0.002 C 
ATOM     56  CG1 VAL A   4      -6.707  11.410   4.111  0.00  0.00    +0.002 C 
ENDBRANCH  21  54
ENDBRANCH  17  21
ENDBRANCH  16  19
BRANCH  16  57
ATOM     57  CB  GLN A   5     -11.703   7.646   7.471  0.00  0.00    +0.039 C 
BRANCH  57  58
ATOM     58  CG  GLN A   5     -12.578   7.401   8.729  0.00  0.00    +0.087 C 
BRANCH  58  59
ATOM     59  CD  GLN A   5     -13.358   8.651   9.198  0.00  0.00    +0.219 C 
ATOM     60  NE2 GLN A   5     -13.559   8.766  10.502  0.00  0.00    -0.329 N 
ATOM     61 HE21 GLN A   5     -13.190   8.042  11.151  0.00  0.00    +0.145 HD
ATOM     62 HE22 GLN A   5     -14.086   9.581  10.877  0.00  0.00    +0.145 HD
ATOM     63  OE1 GLN A   5     -13.779   9.489   8.390  0.00  0.00    -0.275 OA
ENDBRANCH  58  59
ENDBRANCH  57  58
ENDBRANCH  16  57
ENDBRANCH  12  16
ENDBRANCH  11  13
ENDBRANCH   7  11
ENDBRANCH   5   8
ENDBRANCH   1   5
BRANCH   3  64
ATOM     64  CA  THR A   8      -9.379   7.793  15.666  0.00  0.00    +0.176 C 
BRANCH  64  65
ATOM     65  C   THR A   8     -10.233   8.942  15.238  0.00  0.00    +0.243 C 
ATOM     66  O   THR A   8     -10.786   9.649  16.074  0.00  0.00    -0.273 OA
ATOM     67  N   GLY A   9     -10.398   9.133  13.931  0.00  0.00    -0.295 N 
ATOM     68  H   GLY A   9     -10.007   8.446  13.255  0.00  0.00    +0.150 HD
BRANCH  67  69
ATOM     69  CA  GLY A   9     -11.120  10.293  13.444  0.00  0.00    +0.176 C 
BRANCH  69  70
ATOM     70  C   GLY A   9     -10.793  10.573  11.994  0.00  0.00    +0.243 C 
ATOM     71  N   GLY A  10     -11.345  11.629  11.429  0.00  0.00    -0.295 N 
ATOM     72  H   GLY A  10     -11.961  12.240  12.002  0.00  0.00    +0.150 HD
ATOM     73  O   GLY A   9     -10.068   9.825  11.397  0.00  0.00    -0.273 OA
BRANCH  71  74
ATOM     74  CA  GLY A  10     -11.119  11.973  10.014  0.00  0.00    +0.176 C 
BRANCH  74  75
ATOM     75  C   GLY A  10     -10.970  13.459   9.833  0.00  0.00    +0.243 C 
ATOM     76  O   GLY A  10     -11.500  14.253  10.647  0.00  0.00    -0.273 OA
ATOM     77  N   LYS A  11     -10.216  13.861   8.812  0.00  0.00    -0.297 N 
ATOM     78  H   LYS A  11      -9.606  13.162   8.343  0.00  0.00    +0.150 HD
BRANCH  77  79
ATOM     79  CA  LYS A  11     -10.203  15.248   8.314  0.00  0.00    +0.149 C 
BRANCH  79  80
ATOM     80  C   LYS A  11      -9.490  15.254   6.975  0.00  0.00    +0.241 C 
ATOM     81  O   LYS A  11      -9.095  14.204   6.461  0.00  0.00    -0.273 OA
ATOM     82  N   ARG A  12      -9.410  16.416   6.350  0.00  0.00    -0.297 N 
ATOM     83  H   ARG A  12      -9.715  17.278   6.845  0.00  0.00    +0.150 HD
BRANCH  82  84
ATOM     84  CA  ARG A  12      -8.912  16.521   5.004  0.00  0.00    +0.149 C 
BRANCH  84  85
ATOM     85  C   ARG A  12      -7.395  16.801   4.998  0.00  0.00    +0.241 C 
ATOM     86  O   ARG A  12      -6.878  17.505   5.864  0.00  0.00    -0.273 OA
ATOM     87  N   TYR A  13      -6.772  16.266   3.972  0.00  0.00    -0.298 N 
ATOM     88  H   TYR A  13      -7.316  15.672   3.315  0.00  0.00    +0.150 HD
BRANCH  87  89
ATOM     89  CA  TYR A  13      -5.358  16.468   3.716  0.00  0.00    +0.141 C 
BRANCH  89  90
ATOM     90  C   TYR A  13      -5.157  16.715   2.258  0.00  0.00    +0.227 C 
ATOM     91  O   TYR A  13      -5.929  16.211   1.422  0.00  0.00    -0.286 OA
ENDBRANCH  89  90
BRANCH  89  92
ATOM     92  CB  TYR A  13      -4.573  15.216   4.164  0.00  0.00    +0.054 C 
BRANCH  92  93
ATOM     93  CG  TYR A  13      -4.627  15.004   5.662  0.00  0.00    -0.020 A 
ATOM     94  CD2 TYR A  13      -3.764  15.671   6.525  0.00  0.00    -0.001 A 
ATOM     95  CE2 TYR A  13      -3.796  15.510   7.887  0.00  0.00    +0.036 A 
ATOM     96  CZ  TYR A  13      -4.749  14.667   8.431  0.00  0.00    +0.134 A 
ATOM     97  CE1 TYR A  13      -5.648  14.001   7.615  0.00  0.00    +0.036 A 
ATOM     98  CD1 TYR A  13      -5.601  14.197   6.225  0.00  0.00    -0.001 A 
BRANCH  96  99
ATOM     99  OH  TYR A  13      -4.797  14.453   9.778  0.00  0.00    -0.506 OA
ATOM    100  HH  TYR A  13      -4.098  14.995  10.222  0.00  0.00    +0.292 HD
ENDBRANCH  96  99
ENDBRANCH  92  93
ENDBRANCH  89  92
ENDBRANCH  87  89
ENDBRANCH  84  85
BRANCH  84 101
ATOM    101  CB  ARG A  12      -9.692  17.609   4.242  0.00  0.00    +0.033 C 
BRANCH 101 102
ATOM    102  CG  ARG A  12     -11.209  17.317   4.181  0.00  0.00    +0.045 C 
BRANCH 102 103
ATOM    103  CD  ARG A  12     -11.873  18.301   3.203  0.00  0.00    +0.174 C 
BRANCH 103 104
ATOM    104  NE  ARG A  12     -11.557  18.038   1.819  0.00  0.00    -0.265 N 
ATOM    105  HE  ARG A  12     -10.751  18.552   1.408  0.00  0.00    +0.259 HD
ATOM    106  CZ  ARG A  12     -12.212  17.191   1.023  0.00  0.00    +0.342 C 
ATOM    107  NH2 ARG A  12     -13.334  16.566   1.448  0.00  0.00    -0.292 N 
ATOM    108 HH21 ARG A  12     -13.697  16.743   2.406  0.00  0.00    +0.255 HD
ATOM    109 HH22 ARG A  12     -13.834  15.908   0.816  0.00  0.00    +0.255 HD
ATOM    110  NH1 ARG A  12     -11.814  17.076  -0.218  0.00  0.00    -0.292 N 
ATOM    111 HH11 ARG A  12     -11.007  17.637  -0.559  0.00  0.00    +0.255 HD
ATOM    112 HH12 ARG A  12     -12.304  16.424  -0.863  0.00  0.00    +0.255 HD
ENDBRANCH 103 104
ENDBRANCH 102 103
ENDBRANCH 101 102
ENDBRANCH  84 101
ENDBRANCH  82  84
ENDBRANCH  79  80
BRANCH  79 113
ATOM    113  CB  LYS A  11      -9.559  16.202   9.290  0.00  0.00    +0.029 C 
BRANCH 113 114
ATOM    114  CG  LYS A  11      -8.164  15.762   9.679  0.00  0.00    +0.000 C 
BRANCH 114 115
ATOM    115  CD  LYS A  11      -7.473  16.802  10.601  0.00  0.00    -0.024 C 
BRANCH 115 116
ATOM    116  CE  LYS A  11      -7.386  18.184   9.943  0.00  0.00    -0.086 C 
BRANCH 116 117
ATOM    117  NZ  LYS A  11      -7.399  19.284  10.948  0.00  0.00    +0.380 N 
ATOM    118  HZ1 LYS A  11      -6.586  19.177  11.588  0.00  0.00    -0.089 HD
ATOM    119  HZ2 LYS A  11      -8.281  19.240  11.497  0.00  0.00    -0.089 HD
ATOM    120  HZ3 LYS A  11      -7.338  20.200  10.459  0.00  0.00    -0.089 HD
ENDBRANCH 116 117
ENDBRANCH 115 116
ENDBRANCH 114 115
ENDBRANCH 113 114
ENDBRANCH  79 113
ENDBRANCH  77  79
ENDBRANCH  74  75
ENDBRANCH  71  74
ENDBRANCH  69  70
ENDBRANCH  67  69
ENDBRANCH  64  65
BRANCH  64 121
ATOM    121  CB  THR A   8      -8.220   8.240  16.590  0.00  0.00    +0.137 C 
ATOM    122  CG2 THR A   8      -7.335   7.051  16.919  0.00  0.00    +0.034 C 
BRANCH 121 123
ATOM    123  OG1 THR A   8      -7.403   9.191  15.907  0.00  0.00    -0.382 OA
ATOM    124  HG1 THR A   8      -7.031   8.777  15.088  0.00  0.00    +0.210 HD
ENDBRANCH 121 123
ENDBRANCH  64 121
ENDBRANCH   3  64
TORSDOF 48
REMARK  Name = ../refined-set-2016/3slz/3slz_pocket.pdb
REMARK  253 active torsions:
REMARK  status: ('A' for Active; 'I' for Inactive)
REMARK    1  A    between atoms: _2  and  _3
REMARK    2  A    between atoms: _9  and  _10
REMARK    3  A    between atoms: _15  and  _17
REMARK    4  A    between atoms: _17  and  _18
REMARK    5  A    between atoms: _17  and  _20
REMARK    6  A    between atoms: _20  and  _21
REMARK    7  A    between atoms: _24  and  _26
REMARK    8  A    between atoms: _26  and  _27
REMARK    9  A    between atoms: _26  and  _29
REMARK   10  A    between atoms: _32  and  _34
REMARK   11  A    between atoms: _34  and  _35
REMARK   12  A    between atoms: _34  and  _37
REMARK   13  A    between atoms: _37  and  _38
REMARK   14  A    between atoms: _41  and  _43
REMARK   15  A    between atoms: _43  and  _44
REMARK   16  A    between atoms: _43  and  _46
REMARK   17  A    between atoms: _46  and  _47
REMARK   18  A    between atoms: _50  and  _52
REMARK   19  A    between atoms: _52  and  _53
REMARK   20  A    between atoms: _55  and  _57
REMARK   21  A    between atoms: _57  and  _58
REMARK   22  A    between atoms: _61  and  _63
REMARK   23  A    between atoms: _63  and  _64
REMARK   24  A    between atoms: _63  and  _66
REMARK   25  A    between atoms: _66  and  _67
REMARK   26  A    between atoms: _67  and  _68
REMARK   27  A    between atoms: _73  and  _75
REMARK   28  A    between atoms: _75  and  _76
REMARK   29  A    between atoms: _75  and  _78
REMARK   30  A    between atoms: _78  and  _79
REMARK   31  A    between atoms: _84  and  _86
REMARK   32  A    between atoms: _86  and  _87
REMARK   33  A    between atoms: _86  and  _89
REMARK   34  A    between atoms: _89  and  _90
REMARK   35  A    between atoms: _92  and  _94
REMARK   36  A    between atoms: _94  and  _95
REMARK   37  A    between atoms: _94  and  _97
REMARK   38  A    between atoms: _100  and  _102
REMARK   39  A    between atoms: _102  and  _103
REMARK   40  A    between atoms: _102  and  _105
REMARK   41  A    between atoms: _105  and  _106
REMARK   42  A    between atoms: _108  and  _110
REMARK   43  A    between atoms: _110  and  _111
REMARK   44  A    between atoms: _114  and  _116
REMARK   45  A    between atoms: _116  and  _117
REMARK   46  A    between atoms: _116  and  _119
REMARK   47  A    between atoms: _119  and  _120
REMARK   48  A    between atoms: _130  and  _132
REMARK   49  A    between atoms: _132  and  _133
REMARK   50  A    between atoms: _132  and  _135
REMARK   51  A    between atoms: _138  and  _140
REMARK   52  A    between atoms: _140  and  _141
REMARK   53  A    between atoms: _140  and  _143
REMARK   54  A    between atoms: _143  and  _144
REMARK   55  A    between atoms: _144  and  _145
REMARK   56  A    between atoms: _150  and  _152
REMARK   57  A    between atoms: _152  and  _153
REMARK   58  A    between atoms: _155  and  _157
REMARK   59  A    between atoms: _157  and  _158
REMARK   60  A    between atoms: _161  and  _163
REMARK   61  A    between atoms: _163  and  _164
REMARK   62  A    between atoms: _163  and  _166
REMARK   63  A    between atoms: _166  and  _167
REMARK   64  A    between atoms: _170  and  _172
REMARK   65  A    between atoms: _172  and  _173
REMARK   66  A    between atoms: _175  and  _177
REMARK   67  A    between atoms: _177  and  _178
REMARK   68  A    between atoms: _180  and  _182
REMARK   69  A    between atoms: _182  and  _183
REMARK   70  A    between atoms: _182  and  _185
REMARK   71  A    between atoms: _185  and  _186
REMARK   72  A    between atoms: _186  and  _187
REMARK   73  A    between atoms: _187  and  _188
REMARK   74  A    between atoms: _188  and  _189
REMARK   75  A    between atoms: _193  and  _195
REMARK   76  A    between atoms: _195  and  _196
REMARK   77  A    between atoms: _195  and  _198
REMARK   78  A    between atoms: _198  and  _199
REMARK   79  A    between atoms: _204  and  _205
REMARK   80  A    between atoms: _207  and  _209
REMARK   81  A    between atoms: _209  and  _210
REMARK   82  A    between atoms: _209  and  _212
REMARK   83  A    between atoms: _212  and  _213
REMARK   84  A    between atoms: _223  and  _225
REMARK   85  A    between atoms: _225  and  _226
REMARK   86  A    between atoms: _225  and  _228
REMARK   87  A    between atoms: _228  and  _229
REMARK   88  A    between atoms: _232  and  _234
REMARK   89  A    between atoms: _234  and  _235
REMARK   90  A    between atoms: _234  and  _237
REMARK   91  A    between atoms: _240  and  _242
REMARK   92  A    between atoms: _242  and  _243
REMARK   93  A    between atoms: _242  and  _245
REMARK   94  A    between atoms: _245  and  _246
REMARK   95  A    between atoms: _249  and  _251
REMARK   96  A    between atoms: _251  and  _252
REMARK   97  A    between atoms: _251  and  _254
REMARK   98  A    between atoms: _257  and  _258
REMARK   99  A    between atoms: _263  and  _265
REMARK  100  A    between atoms: _265  and  _266
REMARK  101  A    between atoms: _265  and  _268
REMARK  102  A    between atoms: _268  and  _269
REMARK  103  A    between atoms: _274  and  _275
REMARK  104  A    between atoms: _278  and  _279
REMARK  105  A    between atoms: _284  and  _286
REMARK  106  A    between atoms: _286  and  _287
REMARK  107  A    between atoms: _286  and  _289
REMARK  108  A    between atoms: _289  and  _290
REMARK  109  A    between atoms: _293  and  _295
REMARK  110  A    between atoms: _295  and  _296
REMARK  111  A    between atoms: _295  and  _298
REMARK  112  A    between atoms: _298  and  _299
REMARK  113  A    between atoms: _302  and  _304
REMARK  114  A    between atoms: _304  and  _305
REMARK  115  A    between atoms: _307  and  _309
REMARK  116  A    between atoms: _309  and  _310
REMARK  117  A    between atoms: _309  and  _312
REMARK  118  A    between atoms: _312  and  _313
REMARK  119  A    between atoms: _313  and  _314
REMARK  120  A    between atoms: _314  and  _315
REMARK  121  A    between atoms: _325  and  _326
REMARK  122  A    between atoms: _331  and  _333
REMARK  123  A    between atoms: _333  and  _334
REMARK  124  A    between atoms: _333  and  _336
REMARK  125  A    between atoms: _336  and  _337
REMARK  126  A    between atoms: _340  and  _342
REMARK  127  A    between atoms: _342  and  _343
REMARK  128  A    between atoms: _342  and  _345
REMARK  129  A    between atoms: _348  and  _350
REMARK  130  A    between atoms: _350  and  _351
REMARK  131  A    between atoms: _350  and  _353
REMARK  132  A    between atoms: _353  and  _354
REMARK  133  A    between atoms: _357  and  _359
REMARK  134  A    between atoms: _359  and  _360
REMARK  135  A    between atoms: _359  and  _362
REMARK  136  A    between atoms: _362  and  _363
REMARK  137  A    between atoms: _366  and  _368
REMARK  138  A    between atoms: _368  and  _369
REMARK  139  A    between atoms: _371  and  _373
REMARK  140  A    between atoms: _373  and  _374
REMARK  141  A    between atoms: _377  and  _379
REMARK  142  A    between atoms: _379  and  _380
REMARK  143  A    between atoms: _379  and  _382
REMARK  144  A    between atoms: _382  and  _383
REMARK  145  A    between atoms: _383  and  _384
REMARK  146  A    between atoms: _389  and  _391
REMARK  147  A    between atoms: _391  and  _392
REMARK  148  A    between atoms: _391  and  _394
REMARK  149  A    between atoms: _394  and  _395
REMARK  150  A    between atoms: _400  and  _402
REMARK  151  A    between atoms: _402  and  _403
REMARK  152  A    between atoms: _402  and  _405
REMARK  153  A    between atoms: _405  and  _406
REMARK  154  A    between atoms: _408  and  _410
REMARK  155  A    between atoms: _410  and  _411
REMARK  156  A    between atoms: _410  and  _413
REMARK  157  A    between atoms: _416  and  _418
REMARK  158  A    between atoms: _418  and  _419
REMARK  159  A    between atoms: _418  and  _421
REMARK  160  A    between atoms: _421  and  _422
REMARK  161  A    between atoms: _424  and  _426
REMARK  162  A    between atoms: _426  and  _427
REMARK  163  A    between atoms: _430  and  _432
REMARK  164  A    between atoms: _432  and  _433
REMARK  165  A    between atoms: _432  and  _435
REMARK  166  A    between atoms: _435  and  _436
REMARK  167  A    between atoms: _446  and  _448
REMARK  168  A    between atoms: _448  and  _449
REMARK  169  A    between atoms: _448  and  _451
REMARK  170  A    between atoms: _454  and  _456
REMARK  171  A    between atoms: _456  and  _457
REMARK  172  A    between atoms: _456  and  _459
REMARK  173  A    between atoms: _459  and  _460
REMARK  174  A    between atoms: _460  and  _461
REMARK  175  A    between atoms: _466  and  _468
REMARK  176  A    between atoms: _468  and  _469
REMARK  177  A    between atoms: _471  and  _473
REMARK  178  A    between atoms: _473  and  _474
REMARK  179  A    between atoms: _477  and  _479
REMARK  180  A    between atoms: _479  and  _480
REMARK  181  A    between atoms: _479  and  _482
REMARK  182  A    between atoms: _482  and  _483
REMARK  183  A    between atoms: _486  and  _488
REMARK  184  A    between atoms: _488  and  _489
REMARK  185  A    between atoms: _491  and  _493
REMARK  186  A    between atoms: _493  and  _494
REMARK  187  A    between atoms: _496  and  _498
REMARK  188  A    between atoms: _498  and  _499
REMARK  189  A    between atoms: _498  and  _501
REMARK  190  A    between atoms: _501  and  _502
REMARK  191  A    between atoms: _502  and  _503
REMARK  192  A    between atoms: _503  and  _504
REMARK  193  A    between atoms: _504  and  _505
REMARK  194  A    between atoms: _509  and  _511
REMARK  195  A    between atoms: _511  and  _512
REMARK  196  A    between atoms: _511  and  _514
REMARK  197  A    between atoms: _514  and  _515
REMARK  198  A    between atoms: _515  and  _516
REMARK  199  A    between atoms: _516  and  _517
REMARK  200  A    between atoms: _526  and  _528
REMARK  201  A    between atoms: _528  and  _529
REMARK  202  A    between atoms: _528  and  _531
REMARK  203  A    between atoms: _531  and  _532
REMARK  204  A    between atoms: _537  and  _538
REMARK  205  A    between atoms: _540  and  _542
REMARK  206  A    between atoms: _542  and  _543
REMARK  207  A    between atoms: _542  and  _545
REMARK  208  A    between atoms: _545  and  _546
REMARK  209  A    between atoms: _556  and  _558
REMARK  210  A    between atoms: _558  and  _559
REMARK  211  A    between atoms: _558  and  _561
REMARK  212  A    between atoms: _561  and  _562
REMARK  213  A    between atoms: _564  and  _566
REMARK  214  A    between atoms: _566  and  _567
REMARK  215  A    between atoms: _566  and  _569
REMARK  216  A    between atoms: _569  and  _570
REMARK  217  A    between atoms: _573  and  _575
REMARK  218  A    between atoms: _575  and  _576
REMARK  219  A    between atoms: _575  and  _578
REMARK  220  A    between atoms: _581  and  _583
REMARK  221  A    between atoms: _583  and  _584
REMARK  222  A    between atoms: _583  and  _586
REMARK  223  A    between atoms: _586  and  _587
REMARK  224  A    between atoms: _590  and  _592
REMARK  225  A    between atoms: _592  and  _593
REMARK  226  A    between atoms: _592  and  _595
REMARK  227  A    between atoms: _598  and  _599
REMARK  228  A    between atoms: _604  and  _606
REMARK  229  A    between atoms: _606  and  _607
REMARK  230  A    between atoms: _606  and  _609
REMARK  231  A    between atoms: _609  and  _610
REMARK  232  A    between atoms: _615  and  _616
REMARK  233  A    between atoms: _619  and  _620
REMARK  234  A    between atoms: _625  and  _627
REMARK  235  A    between atoms: _627  and  _628
REMARK  236  A    between atoms: _627  and  _630
REMARK  237  A    between atoms: _630  and  _631
REMARK  238  A    between atoms: _634  and  _636
REMARK  239  A    between atoms: _636  and  _637
REMARK  240  A    between atoms: _636  and  _639
REMARK  241  A    between atoms: _639  and  _640
REMARK  242  A    between atoms: _643  and  _645
REMARK  243  A    between atoms: _645  and  _646
REMARK  244  A    between atoms: _648  and  _650
REMARK  245  A    between atoms: _650  and  _651
REMARK  246  A    between atoms: _650  and  _653
REMARK  247  A    between atoms: _653  and  _654
REMARK  248  A    between atoms: _654  and  _655
REMARK  249  A    between atoms: _655  and  _656
REMARK  250  A    between atoms: _665  and  _667
REMARK  251  A    between atoms: _667  and  _668
REMARK  252  A    between atoms: _667  and  _670
REMARK  253  A    between atoms: _670  and  _671
REMARK                            x       y       z     vdW  Elec       q    Type
REMARK                         _______ _______ _______ _____ _____    ______ ____
ROOT
ATOM      1  CG  TRP A   1      -4.821  14.570  -3.501  0.00  0.00    -0.002 A 
ATOM      2  CD2 TRP A   1      -4.727  13.155  -3.390  0.00  0.00    +0.013 A 
ATOM      3  CE2 TRP A   1      -6.029  12.661  -3.228  0.00  0.00    +0.056 A 
ATOM      4  CZ2 TRP A   1      -6.290  11.314  -3.045  0.00  0.00    +0.017 A 
ATOM      5  CH2 TRP A   1      -5.200  10.440  -3.033  0.00  0.00    +0.001 A 
ATOM      6  CZ3 TRP A   1      -3.887  10.897  -3.231  0.00  0.00    +0.000 A 
ATOM      7  NE1 TRP A   1      -6.889  13.725  -3.247  0.00  0.00    -0.352 N 
ATOM      8  HE1 TRP A   1      -7.922  13.673  -3.137  0.00  0.00    +0.166 HD
ATOM      9  CE3 TRP A   1      -3.629  12.252  -3.378  0.00  0.00    +0.001 A 
ATOM     10  CD1 TRP A   1      -6.163  14.867  -3.434  0.00  0.00    +0.068 A 
ENDROOT
BRANCH   1  11
ATOM     11  CB  TRP A   1      -3.680  15.491  -3.727  0.00  0.00    +0.053 C 
BRANCH  11  12
ATOM     12  CA  TRP A   1      -2.813  15.740  -2.488  0.00  0.00    +0.137 C 
BRANCH  12  13
ATOM     13  N   TRP A   1      -3.515  16.555  -1.513  0.00  0.00    -0.239 NA
ATOM     14  H   TRP A   1      -4.359  17.068  -1.839  0.00  0.00    +0.142 HD
ENDBRANCH  12  13
BRANCH  12  15
ATOM     15  C   TRP A   1      -1.523  16.414  -2.929  0.00  0.00    +0.224 C 
ATOM     16  O   TRP A   1      -1.490  17.666  -3.080  0.00  0.00    -0.287 OA
ENDBRANCH  12  15
ENDBRANCH  11  12
ENDBRANCH   1  11
TORSDOF 4
REMARK  Name = ../refined-set-2016/3slz/3slz_pocket.pdb
REMARK  253 active torsions:
REMARK  status: ('A' for Active; 'I' for Inactive)
REMARK    1  A    between atoms: _2  and  _3
REMARK    2  A    between atoms: _9  and  _10
REMARK    3  A    between atoms: _15  and  _17
REMARK    4  A    between atoms: _17  and  _18
REMARK    5  A    between atoms: _17  and  _20
REMARK    6  A    between atoms: _20  and  _21
REMARK    7  A    between atoms: _24  and  _26
REMARK    8  A    between atoms: _26  and  _27
REMARK    9  A    between atoms: _26  and  _29
REMARK   10  A    between atoms: _32  and  _34
REMARK   11  A    between atoms: _34  and  _35
REMARK   12  A    between atoms: _34  and  _37
REMARK   13  A    between atoms: _37  and  _38
REMARK   14  A    between atoms: _41  and  _43
REMARK   15  A    between atoms: _43  and  _44
REMARK   16  A    between atoms: _43  and  _46
REMARK   17  A    between atoms: _46  and  _47
REMARK   18  A    between atoms: _50  and  _52
REMARK   19  A    between atoms: _52  and  _53
REMARK   20  A    between atoms: _55  and  _57
REMARK   21  A    between atoms: _57  and  _58
REMARK   22  A    between atoms: _61  and  _63
REMARK   23  A    between atoms: _63  and  _64
REMARK   24  A    between atoms: _63  and  _66
REMARK   25  A    between atoms: _66  and  _67
REMARK   26  A    between atoms: _67  and  _68
REMARK   27  A    between atoms: _73  and  _75
REMARK   28  A    between atoms: _75  and  _76
REMARK   29  A    between atoms: _75  and  _78
REMARK   30  A    between atoms: _78  and  _79
REMARK   31  A    between atoms: _84  and  _86
REMARK   32  A    between atoms: _86  and  _87
REMARK   33  A    between atoms: _86  and  _89
REMARK   34  A    between atoms: _89  and  _90
REMARK   35  A    between atoms: _92  and  _94
REMARK   36  A    between atoms: _94  and  _95
REMARK   37  A    between atoms: _94  and  _97
REMARK   38  A    between atoms: _100  and  _102
REMARK   39  A    between atoms: _102  and  _103
REMARK   40  A    between atoms: _102  and  _105
REMARK   41  A    between atoms: _105  and  _106
REMARK   42  A    between atoms: _108  and  _110
REMARK   43  A    between atoms: _110  and  _111
REMARK   44  A    between atoms: _114  and  _116
REMARK   45  A    between atoms: _116  and  _117
REMARK   46  A    between atoms: _116  and  _119
REMARK   47  A    between atoms: _119  and  _120
REMARK   48  A    between atoms: _130  and  _132
REMARK   49  A    between atoms: _132  and  _133
REMARK   50  A    between atoms: _132  and  _135
REMARK   51  A    between atoms: _138  and  _140
REMARK   52  A    between atoms: _140  and  _141
REMARK   53  A    between atoms: _140  and  _143
REMARK   54  A    between atoms: _143  and  _144
REMARK   55  A    between atoms: _144  and  _145
REMARK   56  A    between atoms: _150  and  _152
REMARK   57  A    between atoms: _152  and  _153
REMARK   58  A    between atoms: _155  and  _157
REMARK   59  A    between atoms: _157  and  _158
REMARK   60  A    between atoms: _161  and  _163
REMARK   61  A    between atoms: _163  and  _164
REMARK   62  A    between atoms: _163  and  _166
REMARK   63  A    between atoms: _166  and  _167
REMARK   64  A    between atoms: _170  and  _172
REMARK   65  A    between atoms: _172  and  _173
REMARK   66  A    between atoms: _175  and  _177
REMARK   67  A    between atoms: _177  and  _178
REMARK   68  A    between atoms: _180  and  _182
REMARK   69  A    between atoms: _182  and  _183
REMARK   70  A    between atoms: _182  and  _185
REMARK   71  A    between atoms: _185  and  _186
REMARK   72  A    between atoms: _186  and  _187
REMARK   73  A    between atoms: _187  and  _188
REMARK   74  A    between atoms: _188  and  _189
REMARK   75  A    between atoms: _193  and  _195
REMARK   76  A    between atoms: _195  and  _196
REMARK   77  A    between atoms: _195  and  _198
REMARK   78  A    between atoms: _198  and  _199
REMARK   79  A    between atoms: _204  and  _205
REMARK   80  A    between atoms: _207  and  _209
REMARK   81  A    between atoms: _209  and  _210
REMARK   82  A    between atoms: _209  and  _212
REMARK   83  A    between atoms: _212  and  _213
REMARK   84  A    between atoms: _223  and  _225
REMARK   85  A    between atoms: _225  and  _226
REMARK   86  A    between atoms: _225  and  _228
REMARK   87  A    between atoms: _228  and  _229
REMARK   88  A    between atoms: _232  and  _234
REMARK   89  A    between atoms: _234  and  _235
REMARK   90  A    between atoms: _234  and  _237
REMARK   91  A    between atoms: _240  and  _242
REMARK   92  A    between atoms: _242  and  _243
REMARK   93  A    between atoms: _242  and  _245
REMARK   94  A    between atoms: _245  and  _246
REMARK   95  A    between atoms: _249  and  _251
REMARK   96  A    between atoms: _251  and  _252
REMARK   97  A    between atoms: _251  and  _254
REMARK   98  A    between atoms: _257  and  _258
REMARK   99  A    between atoms: _263  and  _265
REMARK  100  A    between atoms: _265  and  _266
REMARK  101  A    between atoms: _265  and  _268
REMARK  102  A    between atoms: _268  and  _269
REMARK  103  A    between atoms: _274  and  _275
REMARK  104  A    between atoms: _278  and  _279
REMARK  105  A    between atoms: _284  and  _286
REMARK  106  A    between atoms: _286  and  _287
REMARK  107  A    between atoms: _286  and  _289
REMARK  108  A    between atoms: _289  and  _290
REMARK  109  A    between atoms: _293  and  _295
REMARK  110  A    between atoms: _295  and  _296
REMARK  111  A    between atoms: _295  and  _298
REMARK  112  A    between atoms: _298  and  _299
REMARK  113  A    between atoms: _302  and  _304
REMARK  114  A    between atoms: _304  and  _305
REMARK  115  A    between atoms: _307  and  _309
REMARK  116  A    between atoms: _309  and  _310
REMARK  117  A    between atoms: _309  and  _312
REMARK  118  A    between atoms: _312  and  _313
REMARK  119  A    between atoms: _313  and  _314
REMARK  120  A    between atoms: _314  and  _315
REMARK  121  A    between atoms: _325  and  _326
REMARK  122  A    between atoms: _331  and  _333
REMARK  123  A    between atoms: _333  and  _334
REMARK  124  A    between atoms: _333  and  _336
REMARK  125  A    between atoms: _336  and  _337
REMARK  126  A    between atoms: _340  and  _342
REMARK  127  A    between atoms: _342  and  _343
REMARK  128  A    between atoms: _342  and  _345
REMARK  129  A    between atoms: _348  and  _350
REMARK  130  A    between atoms: _350  and  _351
REMARK  131  A    between atoms: _350  and  _353
REMARK  132  A    between atoms: _353  and  _354
REMARK  133  A    between atoms: _357  and  _359
REMARK  134  A    between atoms: _359  and  _360
REMARK  135  A    between atoms: _359  and  _362
REMARK  136  A    between atoms: _362  and  _363
REMARK  137  A    between atoms: _366  and  _368
REMARK  138  A    between atoms: _368  and  _369
REMARK  139  A    between atoms: _371  and  _373
REMARK  140  A    between atoms: _373  and  _374
REMARK  141  A    between atoms: _377  and  _379
REMARK  142  A    between atoms: _379  and  _380
REMARK  143  A    between atoms: _379  and  _382
REMARK  144  A    between atoms: _382  and  _383
REMARK  145  A    between atoms: _383  and  _384
REMARK  146  A    between atoms: _389  and  _391
REMARK  147  A    between atoms: _391  and  _392
REMARK  148  A    between atoms: _391  and  _394
REMARK  149  A    between atoms: _394  and  _395
REMARK  150  A    between atoms: _400  and  _402
REMARK  151  A    between atoms: _402  and  _403
REMARK  152  A    between atoms: _402  and  _405
REMARK  153  A    between atoms: _405  and  _406
REMARK  154  A    between atoms: _408  and  _410
REMARK  155  A    between atoms: _410  and  _411
REMARK  156  A    between atoms: _410  and  _413
REMARK  157  A    between atoms: _416  and  _418
REMARK  158  A    between atoms: _418  and  _419
REMARK  159  A    between atoms: _418  and  _421
REMARK  160  A    between atoms: _421  and  _422
REMARK  161  A    between atoms: _424  and  _426
REMARK  162  A    between atoms: _426  and  _427
REMARK  163  A    between atoms: _430  and  _432
REMARK  164  A    between atoms: _432  and  _433
REMARK  165  A    between atoms: _432  and  _435
REMARK  166  A    between atoms: _435  and  _436
REMARK  167  A    between atoms: _446  and  _448
REMARK  168  A    between atoms: _448  and  _449
REMARK  169  A    between atoms: _448  and  _451
REMARK  170  A    between atoms: _454  and  _456
REMARK  171  A    between atoms: _456  and  _457
REMARK  172  A    between atoms: _456  and  _459
REMARK  173  A    between atoms: _459  and  _460
REMARK  174  A    between atoms: _460  and  _461
REMARK  175  A    between atoms: _466  and  _468
REMARK  176  A    between atoms: _468  and  _469
REMARK  177  A    between atoms: _471  and  _473
REMARK  178  A    between atoms: _473  and  _474
REMARK  179  A    between atoms: _477  and  _479
REMARK  180  A    between atoms: _479  and  _480
REMARK  181  A    between atoms: _479  and  _482
REMARK  182  A    between atoms: _482  and  _483
REMARK  183  A    between atoms: _486  and  _488
REMARK  184  A    between atoms: _488  and  _489
REMARK  185  A    between atoms: _491  and  _493
REMARK  186  A    between atoms: _493  and  _494
REMARK  187  A    between atoms: _496  and  _498
REMARK  188  A    between atoms: _498  and  _499
REMARK  189  A    between atoms: _498  and  _501
REMARK  190  A    between atoms: _501  and  _502
REMARK  191  A    between atoms: _502  and  _503
REMARK  192  A    between atoms: _503  and  _504
REMARK  193  A    between atoms: _504  and  _505
REMARK  194  A    between atoms: _509  and  _511
REMARK  195  A    between atoms: _511  and  _512
REMARK  196  A    between atoms: _511  and  _514
REMARK  197  A    between atoms: _514  and  _515
REMARK  198  A    between atoms: _515  and  _516
REMARK  199  A    between atoms: _516  and  _517
REMARK  200  A    between atoms: _526  and  _528
REMARK  201  A    between atoms: _528  and  _529
REMARK  202  A    between atoms: _528  and  _531
REMARK  203  A    between atoms: _531  and  _532
REMARK  204  A    between atoms: _537  and  _538
REMARK  205  A    between atoms: _540  and  _542
REMARK  206  A    between atoms: _542  and  _543
REMARK  207  A    between atoms: _542  and  _545
REMARK  208  A    between atoms: _545  and  _546
REMARK  209  A    between atoms: _556  and  _558
REMARK  210  A    between atoms: _558  and  _559
REMARK  211  A    between atoms: _558  and  _561
REMARK  212  A    between atoms: _561  and  _562
REMARK  213  A    between atoms: _564  and  _566
REMARK  214  A    between atoms: _566  and  _567
REMARK  215  A    between atoms: _566  and  _569
REMARK  216  A    between atoms: _569  and  _570
REMARK  217  A    between atoms: _573  and  _575
REMARK  218  A    between atoms: _575  and  _576
REMARK  219  A    between atoms: _575  and  _578
REMARK  220  A    between atoms: _581  and  _583
REMARK  221  A    between atoms: _583  and  _584
REMARK  222  A    between atoms: _583  and  _586
REMARK  223  A    between atoms: _586  and  _587
REMARK  224  A    between atoms: _590  and  _592
REMARK  225  A    between atoms: _592  and  _593
REMARK  226  A    between atoms: _592  and  _595
REMARK  227  A    between atoms: _598  and  _599
REMARK  228  A    between atoms: _604  and  _606
REMARK  229  A    between atoms: _606  and  _607
REMARK  230  A    between atoms: _606  and  _609
REMARK  231  A    between atoms: _609  and  _610
REMARK  232  A    between atoms: _615  and  _616
REMARK  233  A    between atoms: _619  and  _620
REMARK  234  A    between atoms: _625  and  _627
REMARK  235  A    between atoms: _627  and  _628
REMARK  236  A    between atoms: _627  and  _630
REMARK  237  A    between atoms: _630  and  _631
REMARK  238  A    between atoms: _634  and  _636
REMARK  239  A    between atoms: _636  and  _637
REMARK  240  A    between atoms: _636  and  _639
REMARK  241  A    between atoms: _639  and  _640
REMARK  242  A    between atoms: _643  and  _645
REMARK  243  A    between atoms: _645  and  _646
REMARK  244  A    between atoms: _648  and  _650
REMARK  245  A    between atoms: _650  and  _651
REMARK  246  A    between atoms: _650  and  _653
REMARK  247  A    between atoms: _653  and  _654
REMARK  248  A    between atoms: _654  and  _655
REMARK  249  A    between atoms: _655  and  _656
REMARK  250  A    between atoms: _665  and  _667
REMARK  251  A    between atoms: _667  and  _668
REMARK  252  A    between atoms: _667  and  _670
REMARK  253  A    between atoms: _670  and  _671
REMARK                            x       y       z     vdW  Elec       q    Type
REMARK                         _______ _______ _______ _____ _____    ______ ____
ROOT
ATOM      1  CA  SER A   1       0.277  11.180  -6.318  0.00  0.00    +0.163 C 
ENDROOT
BRANCH   1   2
ATOM      2  N   SER A   1       0.440  10.126  -7.294  0.00  0.00    -0.237 NA
ATOM      3  H   SER A   1      -0.362   9.500  -7.511  0.00  0.00    +0.142 HD
ENDBRANCH   1   2
BRANCH   1   4
ATOM      4  C   SER A   1       0.113  10.579  -4.927  0.00  0.00    +0.227 C 
ATOM      5  O   SER A   1      -0.281   9.406  -4.774  0.00  0.00    -0.287 OA
ENDBRANCH   1   4
BRANCH   1   6
ATOM      6  CB  SER A   1      -0.935  12.038  -6.637  0.00  0.00    +0.162 C 
BRANCH   6   7
ATOM      7  OG  SER A   1      -2.090  11.231  -6.605  0.00  0.00    -0.380 OA
ATOM      8  H   SER A   1      -2.884  11.785  -6.812  0.00  0.00    +0.211 HD
ENDBRANCH   6   7
ENDBRANCH   1   6
TORSDOF 4
REMARK  Name = ../refined-set-2016/3slz/3slz_pocket.pdb
REMARK  253 active torsions:
REMARK  status: ('A' for Active; 'I' for Inactive)
REMARK    1  A    between atoms: _2  and  _3
REMARK    2  A    between atoms: _9  and  _10
REMARK    3  A    between atoms: _15  and  _17
REMARK    4  A    between atoms: _17  and  _18
REMARK    5  A    between atoms: _17  and  _20
REMARK    6  A    between atoms: _20  and  _21
REMARK    7  A    between atoms: _24  and  _26
REMARK    8  A    between atoms: _26  and  _27
REMARK    9  A    between atoms: _26  and  _29
REMARK   10  A    between atoms: _32  and  _34
REMARK   11  A    between atoms: _34  and  _35
REMARK   12  A    between atoms: _34  and  _37
REMARK   13  A    between atoms: _37  and  _38
REMARK   14  A    between atoms: _41  and  _43
REMARK   15  A    between atoms: _43  and  _44
REMARK   16  A    between atoms: _43  and  _46
REMARK   17  A    between atoms: _46  and  _47
REMARK   18  A    between atoms: _50  and  _52
REMARK   19  A    between atoms: _52  and  _53
REMARK   20  A    between atoms: _55  and  _57
REMARK   21  A    between atoms: _57  and  _58
REMARK   22  A    between atoms: _61  and  _63
REMARK   23  A    between atoms: _63  and  _64
REMARK   24  A    between atoms: _63  and  _66
REMARK   25  A    between atoms: _66  and  _67
REMARK   26  A    between atoms: _67  and  _68
REMARK   27  A    between atoms: _73  and  _75
REMARK   28  A    between atoms: _75  and  _76
REMARK   29  A    between atoms: _75  and  _78
REMARK   30  A    between atoms: _78  and  _79
REMARK   31  A    between atoms: _84  and  _86
REMARK   32  A    between atoms: _86  and  _87
REMARK   33  A    between atoms: _86  and  _89
REMARK   34  A    between atoms: _89  and  _90
REMARK   35  A    between atoms: _92  and  _94
REMARK   36  A    between atoms: _94  and  _95
REMARK   37  A    between atoms: _94  and  _97
REMARK   38  A    between atoms: _100  and  _102
REMARK   39  A    between atoms: _102  and  _103
REMARK   40  A    between atoms: _102  and  _105
REMARK   41  A    between atoms: _105  and  _106
REMARK   42  A    between atoms: _108  and  _110
REMARK   43  A    between atoms: _110  and  _111
REMARK   44  A    between atoms: _114  and  _116
REMARK   45  A    between atoms: _116  and  _117
REMARK   46  A    between atoms: _116  and  _119
REMARK   47  A    between atoms: _119  and  _120
REMARK   48  A    between atoms: _130  and  _132
REMARK   49  A    between atoms: _132  and  _133
REMARK   50  A    between atoms: _132  and  _135
REMARK   51  A    between atoms: _138  and  _140
REMARK   52  A    between atoms: _140  and  _141
REMARK   53  A    between atoms: _140  and  _143
REMARK   54  A    between atoms: _143  and  _144
REMARK   55  A    between atoms: _144  and  _145
REMARK   56  A    between atoms: _150  and  _152
REMARK   57  A    between atoms: _152  and  _153
REMARK   58  A    between atoms: _155  and  _157
REMARK   59  A    between atoms: _157  and  _158
REMARK   60  A    between atoms: _161  and  _163
REMARK   61  A    between atoms: _163  and  _164
REMARK   62  A    between atoms: _163  and  _166
REMARK   63  A    between atoms: _166  and  _167
REMARK   64  A    between atoms: _170  and  _172
REMARK   65  A    between atoms: _172  and  _173
REMARK   66  A    between atoms: _175  and  _177
REMARK   67  A    between atoms: _177  and  _178
REMARK   68  A    between atoms: _180  and  _182
REMARK   69  A    between atoms: _182  and  _183
REMARK   70  A    between atoms: _182  and  _185
REMARK   71  A    between atoms: _185  and  _186
REMARK   72  A    between atoms: _186  and  _187
REMARK   73  A    between atoms: _187  and  _188
REMARK   74  A    between atoms: _188  and  _189
REMARK   75  A    between atoms: _193  and  _195
REMARK   76  A    between atoms: _195  and  _196
REMARK   77  A    between atoms: _195  and  _198
REMARK   78  A    between atoms: _198  and  _199
REMARK   79  A    between atoms: _204  and  _205
REMARK   80  A    between atoms: _207  and  _209
REMARK   81  A    between atoms: _209  and  _210
REMARK   82  A    between atoms: _209  and  _212
REMARK   83  A    between atoms: _212  and  _213
REMARK   84  A    between atoms: _223  and  _225
REMARK   85  A    between atoms: _225  and  _226
REMARK   86  A    between atoms: _225  and  _228
REMARK   87  A    between atoms: _228  and  _229
REMARK   88  A    between atoms: _232  and  _234
REMARK   89  A    between atoms: _234  and  _235
REMARK   90  A    between atoms: _234  and  _237
REMARK   91  A    between atoms: _240  and  _242
REMARK   92  A    between atoms: _242  and  _243
REMARK   93  A    between atoms: _242  and  _245
REMARK   94  A    between atoms: _245  and  _246
REMARK   95  A    between atoms: _249  and  _251
REMARK   96  A    between atoms: _251  and  _252
REMARK   97  A    between atoms: _251  and  _254
REMARK   98  A    between atoms: _257  and  _258
REMARK   99  A    between atoms: _263  and  _265
REMARK  100  A    between atoms: _265  and  _266
REMARK  101  A    between atoms: _265  and  _268
REMARK  102  A    between atoms: _268  and  _269
REMARK  103  A    between atoms: _274  and  _275
REMARK  104  A    between atoms: _278  and  _279
REMARK  105  A    between atoms: _284  and  _286
REMARK  106  A    between atoms: _286  and  _287
REMARK  107  A    between atoms: _286  and  _289
REMARK  108  A    between atoms: _289  and  _290
REMARK  109  A    between atoms: _293  and  _295
REMARK  110  A    between atoms: _295  and  _296
REMARK  111  A    between atoms: _295  and  _298
REMARK  112  A    between atoms: _298  and  _299
REMARK  113  A    between atoms: _302  and  _304
REMARK  114  A    between atoms: _304  and  _305
REMARK  115  A    between atoms: _307  and  _309
REMARK  116  A    between atoms: _309  and  _310
REMARK  117  A    between atoms: _309  and  _312
REMARK  118  A    between atoms: _312  and  _313
REMARK  119  A    between atoms: _313  and  _314
REMARK  120  A    between atoms: _314  and  _315
REMARK  121  A    between atoms: _325  and  _326
REMARK  122  A    between atoms: _331  and  _333
REMARK  123  A    between atoms: _333  and  _334
REMARK  124  A    between atoms: _333  and  _336
REMARK  125  A    between atoms: _336  and  _337
REMARK  126  A    between atoms: _340  and  _342
REMARK  127  A    between atoms: _342  and  _343
REMARK  128  A    between atoms: _342  and  _345
REMARK  129  A    between atoms: _348  and  _350
REMARK  130  A    between atoms: _350  and  _351
REMARK  131  A    between atoms: _350  and  _353
REMARK  132  A    between atoms: _353  and  _354
REMARK  133  A    between atoms: _357  and  _359
REMARK  134  A    between atoms: _359  and  _360
REMARK  135  A    between atoms: _359  and  _362
REMARK  136  A    between atoms: _362  and  _363
REMARK  137  A    between atoms: _366  and  _368
REMARK  138  A    between atoms: _368  and  _369
REMARK  139  A    between atoms: _371  and  _373
REMARK  140  A    between atoms: _373  and  _374
REMARK  141  A    between atoms: _377  and  _379
REMARK  142  A    between atoms: _379  and  _380
REMARK  143  A    between atoms: _379  and  _382
REMARK  144  A    between atoms: _382  and  _383
REMARK  145  A    between atoms: _383  and  _384
REMARK  146  A    between atoms: _389  and  _391
REMARK  147  A    between atoms: _391  and  _392
REMARK  148  A    between atoms: _391  and  _394
REMARK  149  A    between atoms: _394  and  _395
REMARK  150  A    between atoms: _400  and  _402
REMARK  151  A    between atoms: _402  and  _403
REMARK  152  A    between atoms: _402  and  _405
REMARK  153  A    between atoms: _405  and  _406
REMARK  154  A    between atoms: _408  and  _410
REMARK  155  A    between atoms: _410  and  _411
REMARK  156  A    between atoms: _410  and  _413
REMARK  157  A    between atoms: _416  and  _418
REMARK  158  A    between atoms: _418  and  _419
REMARK  159  A    between atoms: _418  and  _421
REMARK  160  A    between atoms: _421  and  _422
REMARK  161  A    between atoms: _424  and  _426
REMARK  162  A    between atoms: _426  and  _427
REMARK  163  A    between atoms: _430  and  _432
REMARK  164  A    between atoms: _432  and  _433
REMARK  165  A    between atoms: _432  and  _435
REMARK  166  A    between atoms: _435  and  _436
REMARK  167  A    between atoms: _446  and  _448
REMARK  168  A    between atoms: _448  and  _449
REMARK  169  A    between atoms: _448  and  _451
REMARK  170  A    between atoms: _454  and  _456
REMARK  171  A    between atoms: _456  and  _457
REMARK  172  A    between atoms: _456  and  _459
REMARK  173  A    between atoms: _459  and  _460
REMARK  174  A    between atoms: _460  and  _461
REMARK  175  A    between atoms: _466  and  _468
REMARK  176  A    between atoms: _468  and  _469
REMARK  177  A    between atoms: _471  and  _473
REMARK  178  A    between atoms: _473  and  _474
REMARK  179  A    between atoms: _477  and  _479
REMARK  180  A    between atoms: _479  and  _480
REMARK  181  A    between atoms: _479  and  _482
REMARK  182  A    between atoms: _482  and  _483
REMARK  183  A    between atoms: _486  and  _488
REMARK  184  A    between atoms: _488  and  _489
REMARK  185  A    between atoms: _491  and  _493
REMARK  186  A    between atoms: _493  and  _494
REMARK  187  A    between atoms: _496  and  _498
REMARK  188  A    between atoms: _498  and  _499
REMARK  189  A    between atoms: _498  and  _501
REMARK  190  A    between atoms: _501  and  _502
REMARK  191  A    between atoms: _502  and  _503
REMARK  192  A    between atoms: _503  and  _504
REMARK  193  A    between atoms: _504  and  _505
REMARK  194  A    between atoms: _509  and  _511
REMARK  195  A    between atoms: _511  and  _512
REMARK  196  A    between atoms: _511  and  _514
REMARK  197  A    between atoms: _514  and  _515
REMARK  198  A    between atoms: _515  and  _516
REMARK  199  A    between atoms: _516  and  _517
REMARK  200  A    between atoms: _526  and  _528
REMARK  201  A    between atoms: _528  and  _529
REMARK  202  A    between atoms: _528  and  _531
REMARK  203  A    between atoms: _531  and  _532
REMARK  204  A    between atoms: _537  and  _538
REMARK  205  A    between atoms: _540  and  _542
REMARK  206  A    between atoms: _542  and  _543
REMARK  207  A    between atoms: _542  and  _545
REMARK  208  A    between atoms: _545  and  _546
REMARK  209  A    between atoms: _556  and  _558
REMARK  210  A    between atoms: _558  and  _559
REMARK  211  A    between atoms: _558  and  _561
REMARK  212  A    between atoms: _561  and  _562
REMARK  213  A    between atoms: _564  and  _566
REMARK  214  A    between atoms: _566  and  _567
REMARK  215  A    between atoms: _566  and  _569
REMARK  216  A    between atoms: _569  and  _570
REMARK  217  A    between atoms: _573  and  _575
REMARK  218  A    between atoms: _575  and  _576
REMARK  219  A    between atoms: _575  and  _578
REMARK  220  A    between atoms: _581  and  _583
REMARK  221  A    between atoms: _583  and  _584
REMARK  222  A    between atoms: _583  and  _586
REMARK  223  A    between atoms: _586  and  _587
REMARK  224  A    between atoms: _590  and  _592
REMARK  225  A    between atoms: _592  and  _593
REMARK  226  A    between atoms: _592  and  _595
REMARK  227  A    between atoms: _598  and  _599
REMARK  228  A    between atoms: _604  and  _606
REMARK  229  A    between atoms: _606  and  _607
REMARK  230  A    between atoms: _606  and  _609
REMARK  231  A    between atoms: _609  and  _610
REMARK  232  A    between atoms: _615  and  _616
REMARK  233  A    between atoms: _619  and  _620
REMARK  234  A    between atoms: _625  and  _627
REMARK  235  A    between atoms: _627  and  _628
REMARK  236  A    between atoms: _627  and  _630
REMARK  237  A    between atoms: _630  and  _631
REMARK  238  A    between atoms: _634  and  _636
REMARK  239  A    between atoms: _636  and  _637
REMARK  240  A    between atoms: _636  and  _639
REMARK  241  A    between atoms: _639  and  _640
REMARK  242  A    between atoms: _643  and  _645
REMARK  243  A    between atoms: _645  and  _646
REMARK  244  A    between atoms: _648  and  _650
REMARK  245  A    between atoms: _650  and  _651
REMARK  246  A    between atoms: _650  and  _653
REMARK  247  A    between atoms: _653  and  _654
REMARK  248  A    between atoms: _654  and  _655
REMARK  249  A    between atoms: _655  and  _656
REMARK  250  A    between atoms: _665  and  _667
REMARK  251  A    between atoms: _667  and  _668
REMARK  252  A    between atoms: _667  and  _670
REMARK  253  A    between atoms: _670  and  _671
REMARK                            x       y       z     vdW  Elec       q    Type
REMARK                         _______ _______ _______ _____ _____    ______ ____
ROOT
ATOM      1  CA  LEU A   1      -1.607  12.190   0.409  0.00  0.00    +0.133 C 
ENDROOT
BRANCH   1   2
ATOM      2  N   LEU A   1      -1.040  11.335  -0.631  0.00  0.00    -0.239 NA
ATOM      3  H   LEU A   1      -1.111  10.302  -0.533  0.00  0.00    +0.142 HD
ENDBRANCH   1   2
BRANCH   1   4
ATOM      4  C   LEU A   1      -0.531  12.778   1.244  0.00  0.00    +0.224 C 
ATOM      5  O   LEU A   1       0.360  12.007   1.690  0.00  0.00    -0.287 OA
ENDBRANCH   1   4
BRANCH   1   6
ATOM      6  CB  LEU A   1      -2.513  11.341   1.319  0.00  0.00    +0.025 C 
BRANCH   6   7
ATOM      7  CG  LEU A   1      -3.680  10.689   0.607  0.00  0.00    +0.002 C 
ATOM      8  CD2 LEU A   1      -4.244   9.567   1.533  0.00  0.00    +0.000 C 
ATOM      9  CD1 LEU A   1      -4.727  11.746   0.340  0.00  0.00    +0.000 C 
ENDBRANCH   6   7
ENDBRANCH   1   6
TORSDOF 4
REMARK  Name = ../refined-set-2016/3slz/3slz_pocket.pdb
REMARK  253 active torsions:
REMARK  status: ('A' for Active; 'I' for Inactive)
REMARK    1  A    between atoms: _2  and  _3
REMARK    2  A    between atoms: _9  and  _10
REMARK    3  A    between atoms: _15  and  _17
REMARK    4  A    between atoms: _17  and  _18
REMARK    5  A    between atoms: _17  and  _20
REMARK    6  A    between atoms: _20  and  _21
REMARK    7  A    between atoms: _24  and  _26
REMARK    8  A    between atoms: _26  and  _27
REMARK    9  A    between atoms: _26  and  _29
REMARK   10  A    between atoms: _32  and  _34
REMARK   11  A    between atoms: _34  and  _35
REMARK   12  A    between atoms: _34  and  _37
REMARK   13  A    between atoms: _37  and  _38
REMARK   14  A    between atoms: _41  and  _43
REMARK   15  A    between atoms: _43  and  _44
REMARK   16  A    between atoms: _43  and  _46
REMARK   17  A    between atoms: _46  and  _47
REMARK   18  A    between atoms: _50  and  _52
REMARK   19  A    between atoms: _52  and  _53
REMARK   20  A    between atoms: _55  and  _57
REMARK   21  A    between atoms: _57  and  _58
REMARK   22  A    between atoms: _61  and  _63
REMARK   23  A    between atoms: _63  and  _64
REMARK   24  A    between atoms: _63  and  _66
REMARK   25  A    between atoms: _66  and  _67
REMARK   26  A    between atoms: _67  and  _68
REMARK   27  A    between atoms: _73  and  _75
REMARK   28  A    between atoms: _75  and  _76
REMARK   29  A    between atoms: _75  and  _78
REMARK   30  A    between atoms: _78  and  _79
REMARK   31  A    between atoms: _84  and  _86
REMARK   32  A    between atoms: _86  and  _87
REMARK   33  A    between atoms: _86  and  _89
REMARK   34  A    between atoms: _89  and  _90
REMARK   35  A    between atoms: _92  and  _94
REMARK   36  A    between atoms: _94  and  _95
REMARK   37  A    between atoms: _94  and  _97
REMARK   38  A    between atoms: _100  and  _102
REMARK   39  A    between atoms: _102  and  _103
REMARK   40  A    between atoms: _102  and  _105
REMARK   41  A    between atoms: _105  and  _106
REMARK   42  A    between atoms: _108  and  _110
REMARK   43  A    between atoms: _110  and  _111
REMARK   44  A    between atoms: _114  and  _116
REMARK   45  A    between atoms: _116  and  _117
REMARK   46  A    between atoms: _116  and  _119
REMARK   47  A    between atoms: _119  and  _120
REMARK   48  A    between atoms: _130  and  _132
REMARK   49  A    between atoms: _132  and  _133
REMARK   50  A    between atoms: _132  and  _135
REMARK   51  A    between atoms: _138  and  _140
REMARK   52  A    between atoms: _140  and  _141
REMARK   53  A    between atoms: _140  and  _143
REMARK   54  A    between atoms: _143  and  _144
REMARK   55  A    between atoms: _144  and  _145
REMARK   56  A    between atoms: _150  and  _152
REMARK   57  A    between atoms: _152  and  _153
REMARK   58  A    between atoms: _155  and  _157
REMARK   59  A    between atoms: _157  and  _158
REMARK   60  A    between atoms: _161  and  _163
REMARK   61  A    between atoms: _163  and  _164
REMARK   62  A    between atoms: _163  and  _166
REMARK   63  A    between atoms: _166  and  _167
REMARK   64  A    between atoms: _170  and  _172
REMARK   65  A    between atoms: _172  and  _173
REMARK   66  A    between atoms: _175  and  _177
REMARK   67  A    between atoms: _177  and  _178
REMARK   68  A    between atoms: _180  and  _182
REMARK   69  A    between atoms: _182  and  _183
REMARK   70  A    between atoms: _182  and  _185
REMARK   71  A    between atoms: _185  and  _186
REMARK   72  A    between atoms: _186  and  _187
REMARK   73  A    between atoms: _187  and  _188
REMARK   74  A    between atoms: _188  and  _189
REMARK   75  A    between atoms: _193  and  _195
REMARK   76  A    between atoms: _195  and  _196
REMARK   77  A    between atoms: _195  and  _198
REMARK   78  A    between atoms: _198  and  _199
REMARK   79  A    between atoms: _204  and  _205
REMARK   80  A    between atoms: _207  and  _209
REMARK   81  A    between atoms: _209  and  _210
REMARK   82  A    between atoms: _209  and  _212
REMARK   83  A    between atoms: _212  and  _213
REMARK   84  A    between atoms: _223  and  _225
REMARK   85  A    between atoms: _225  and  _226
REMARK   86  A    between atoms: _225  and  _228
REMARK   87  A    between atoms: _228  and  _229
REMARK   88  A    between atoms: _232  and  _234
REMARK   89  A    between atoms: _234  and  _235
REMARK   90  A    between atoms: _234  and  _237
REMARK   91  A    between atoms: _240  and  _242
REMARK   92  A    between atoms: _242  and  _243
REMARK   93  A    between atoms: _242  and  _245
REMARK   94  A    between atoms: _245  and  _246
REMARK   95  A    between atoms: _249  and  _251
REMARK   96  A    between atoms: _251  and  _252
REMARK   97  A    between atoms: _251  and  _254
REMARK   98  A    between atoms: _257  and  _258
REMARK   99  A    between atoms: _263  and  _265
REMARK  100  A    between atoms: _265  and  _266
REMARK  101  A    between atoms: _265  and  _268
REMARK  102  A    between atoms: _268  and  _269
REMARK  103  A    between atoms: _274  and  _275
REMARK  104  A    between atoms: _278  and  _279
REMARK  105  A    between atoms: _284  and  _286
REMARK  106  A    between atoms: _286  and  _287
REMARK  107  A    between atoms: _286  and  _289
REMARK  108  A    between atoms: _289  and  _290
REMARK  109  A    between atoms: _293  and  _295
REMARK  110  A    between atoms: _295  and  _296
REMARK  111  A    between atoms: _295  and  _298
REMARK  112  A    between atoms: _298  and  _299
REMARK  113  A    between atoms: _302  and  _304
REMARK  114  A    between atoms: _304  and  _305
REMARK  115  A    between atoms: _307  and  _309
REMARK  116  A    between atoms: _309  and  _310
REMARK  117  A    between atoms: _309  and  _312
REMARK  118  A    between atoms: _312  and  _313
REMARK  119  A    between atoms: _313  and  _314
REMARK  120  A    between atoms: _314  and  _315
REMARK  121  A    between atoms: _325  and  _326
REMARK  122  A    between atoms: _331  and  _333
REMARK  123  A    between atoms: _333  and  _334
REMARK  124  A    between atoms: _333  and  _336
REMARK  125  A    between atoms: _336  and  _337
REMARK  126  A    between atoms: _340  and  _342
REMARK  127  A    between atoms: _342  and  _343
REMARK  128  A    between atoms: _342  and  _345
REMARK  129  A    between atoms: _348  and  _350
REMARK  130  A    between atoms: _350  and  _351
REMARK  131  A    between atoms: _350  and  _353
REMARK  132  A    between atoms: _353  and  _354
REMARK  133  A    between atoms: _357  and  _359
REMARK  134  A    between atoms: _359  and  _360
REMARK  135  A    between atoms: _359  and  _362
REMARK  136  A    between atoms: _362  and  _363
REMARK  137  A    between atoms: _366  and  _368
REMARK  138  A    between atoms: _368  and  _369
REMARK  139  A    between atoms: _371  and  _373
REMARK  140  A    between atoms: _373  and  _374
REMARK  141  A    between atoms: _377  and  _379
REMARK  142  A    between atoms: _379  and  _380
REMARK  143  A    between atoms: _379  and  _382
REMARK  144  A    between atoms: _382  and  _383
REMARK  145  A    between atoms: _383  and  _384
REMARK  146  A    between atoms: _389  and  _391
REMARK  147  A    between atoms: _391  and  _392
REMARK  148  A    between atoms: _391  and  _394
REMARK  149  A    between atoms: _394  and  _395
REMARK  150  A    between atoms: _400  and  _402
REMARK  151  A    between atoms: _402  and  _403
REMARK  152  A    between atoms: _402  and  _405
REMARK  153  A    between atoms: _405  and  _406
REMARK  154  A    between atoms: _408  and  _410
REMARK  155  A    between atoms: _410  and  _411
REMARK  156  A    between atoms: _410  and  _413
REMARK  157  A    between atoms: _416  and  _418
REMARK  158  A    between atoms: _418  and  _419
REMARK  159  A    between atoms: _418  and  _421
REMARK  160  A    between atoms: _421  and  _422
REMARK  161  A    between atoms: _424  and  _426
REMARK  162  A    between atoms: _426  and  _427
REMARK  163  A    between atoms: _430  and  _432
REMARK  164  A    between atoms: _432  and  _433
REMARK  165  A    between atoms: _432  and  _435
REMARK  166  A    between atoms: _435  and  _436
REMARK  167  A    between atoms: _446  and  _448
REMARK  168  A    between atoms: _448  and  _449
REMARK  169  A    between atoms: _448  and  _451
REMARK  170  A    between atoms: _454  and  _456
REMARK  171  A    between atoms: _456  and  _457
REMARK  172  A    between atoms: _456  and  _459
REMARK  173  A    between atoms: _459  and  _460
REMARK  174  A    between atoms: _460  and  _461
REMARK  175  A    between atoms: _466  and  _468
REMARK  176  A    between atoms: _468  and  _469
REMARK  177  A    between atoms: _471  and  _473
REMARK  178  A    between atoms: _473  and  _474
REMARK  179  A    between atoms: _477  and  _479
REMARK  180  A    between atoms: _479  and  _480
REMARK  181  A    between atoms: _479  and  _482
REMARK  182  A    between atoms: _482  and  _483
REMARK  183  A    between atoms: _486  and  _488
REMARK  184  A    between atoms: _488  and  _489
REMARK  185  A    between atoms: _491  and  _493
REMARK  186  A    between atoms: _493  and  _494
REMARK  187  A    between atoms: _496  and  _498
REMARK  188  A    between atoms: _498  and  _499
REMARK  189  A    between atoms: _498  and  _501
REMARK  190  A    between atoms: _501  and  _502
REMARK  191  A    between atoms: _502  and  _503
REMARK  192  A    between atoms: _503  and  _504
REMARK  193  A    between atoms: _504  and  _505
REMARK  194  A    between atoms: _509  and  _511
REMARK  195  A    between atoms: _511  and  _512
REMARK  196  A    between atoms: _511  and  _514
REMARK  197  A    between atoms: _514  and  _515
REMARK  198  A    between atoms: _515  and  _516
REMARK  199  A    between atoms: _516  and  _517
REMARK  200  A    between atoms: _526  and  _528
REMARK  201  A    between atoms: _528  and  _529
REMARK  202  A    between atoms: _528  and  _531
REMARK  203  A    between atoms: _531  and  _532
REMARK  204  A    between atoms: _537  and  _538
REMARK  205  A    between atoms: _540  and  _542
REMARK  206  A    between atoms: _542  and  _543
REMARK  207  A    between atoms: _542  and  _545
REMARK  208  A    between atoms: _545  and  _546
REMARK  209  A    between atoms: _556  and  _558
REMARK  210  A    between atoms: _558  and  _559
REMARK  211  A    between atoms: _558  and  _561
REMARK  212  A    between atoms: _561  and  _562
REMARK  213  A    between atoms: _564  and  _566
REMARK  214  A    between atoms: _566  and  _567
REMARK  215  A    between atoms: _566  and  _569
REMARK  216  A    between atoms: _569  and  _570
REMARK  217  A    between atoms: _573  and  _575
REMARK  218  A    between atoms: _575  and  _576
REMARK  219  A    between atoms: _575  and  _578
REMARK  220  A    between atoms: _581  and  _583
REMARK  221  A    between atoms: _583  and  _584
REMARK  222  A    between atoms: _583  and  _586
REMARK  223  A    between atoms: _586  and  _587
REMARK  224  A    between atoms: _590  and  _592
REMARK  225  A    between atoms: _592  and  _593
REMARK  226  A    between atoms: _592  and  _595
REMARK  227  A    between atoms: _598  and  _599
REMARK  228  A    between atoms: _604  and  _606
REMARK  229  A    between atoms: _606  and  _607
REMARK  230  A    between atoms: _606  and  _609
REMARK  231  A    between atoms: _609  and  _610
REMARK  232  A    between atoms: _615  and  _616
REMARK  233  A    between atoms: _619  and  _620
REMARK  234  A    between atoms: _625  and  _627
REMARK  235  A    between atoms: _627  and  _628
REMARK  236  A    between atoms: _627  and  _630
REMARK  237  A    between atoms: _630  and  _631
REMARK  238  A    between atoms: _634  and  _636
REMARK  239  A    between atoms: _636  and  _637
REMARK  240  A    between atoms: _636  and  _639
REMARK  241  A    between atoms: _639  and  _640
REMARK  242  A    between atoms: _643  and  _645
REMARK  243  A    between atoms: _645  and  _646
REMARK  244  A    between atoms: _648  and  _650
REMARK  245  A    between atoms: _650  and  _651
REMARK  246  A    between atoms: _650  and  _653
REMARK  247  A    between atoms: _653  and  _654
REMARK  248  A    between atoms: _654  and  _655
REMARK  249  A    between atoms: _655  and  _656
REMARK  250  A    between atoms: _665  and  _667
REMARK  251  A    between atoms: _667  and  _668
REMARK  252  A    between atoms: _667  and  _670
REMARK  253  A    between atoms: _670  and  _671
REMARK                            x       y       z     vdW  Elec       q    Type
REMARK                         _______ _______ _______ _____ _____    ______ ____
ROOT
ATOM      1  CA  VAL A   1      -0.546  13.650   6.085  0.00  0.00    +0.133 C 
ENDROOT
BRANCH   1   2
ATOM      2  CB  VAL A   1      -1.231  12.258   6.256  0.00  0.00    +0.023 C 
ATOM      3  CG2 VAL A   1      -2.042  12.255   7.537  0.00  0.00    +0.002 C 
ATOM      4  CG1 VAL A   1      -2.163  11.906   5.055  0.00  0.00    +0.002 C 
ENDBRANCH   1   2
BRANCH   1   5
ATOM      5  N   VAL A   1       0.114  13.801   4.801  0.00  0.00    -0.239 NA
ATOM      6  H   VAL A   1       0.965  13.234   4.611  0.00  0.00    +0.142 HD
ENDBRANCH   1   5
BRANCH   1   7
ATOM      7  C   VAL A   1       0.497  13.883   7.185  0.00  0.00    +0.224 C 
ATOM      8  O   VAL A   1       1.144  12.932   7.669  0.00  0.00    -0.287 OA
ENDBRANCH   1   7
TORSDOF 3
REMARK  Name = ../refined-set-2016/3slz/3slz_pocket.pdb
REMARK  253 active torsions:
REMARK  status: ('A' for Active; 'I' for Inactive)
REMARK    1  A    between atoms: _2  and  _3
REMARK    2  A    between atoms: _9  and  _10
REMARK    3  A    between atoms: _15  and  _17
REMARK    4  A    between atoms: _17  and  _18
REMARK    5  A    between atoms: _17  and  _20
REMARK    6  A    between atoms: _20  and  _21
REMARK    7  A    between atoms: _24  and  _26
REMARK    8  A    between atoms: _26  and  _27
REMARK    9  A    between atoms: _26  and  _29
REMARK   10  A    between atoms: _32  and  _34
REMARK   11  A    between atoms: _34  and  _35
REMARK   12  A    between atoms: _34  and  _37
REMARK   13  A    between atoms: _37  and  _38
REMARK   14  A    between atoms: _41  and  _43
REMARK   15  A    between atoms: _43  and  _44
REMARK   16  A    between atoms: _43  and  _46
REMARK   17  A    between atoms: _46  and  _47
REMARK   18  A    between atoms: _50  and  _52
REMARK   19  A    between atoms: _52  and  _53
REMARK   20  A    between atoms: _55  and  _57
REMARK   21  A    between atoms: _57  and  _58
REMARK   22  A    between atoms: _61  and  _63
REMARK   23  A    between atoms: _63  and  _64
REMARK   24  A    between atoms: _63  and  _66
REMARK   25  A    between atoms: _66  and  _67
REMARK   26  A    between atoms: _67  and  _68
REMARK   27  A    between atoms: _73  and  _75
REMARK   28  A    between atoms: _75  and  _76
REMARK   29  A    between atoms: _75  and  _78
REMARK   30  A    between atoms: _78  and  _79
REMARK   31  A    between atoms: _84  and  _86
REMARK   32  A    between atoms: _86  and  _87
REMARK   33  A    between atoms: _86  and  _89
REMARK   34  A    between atoms: _89  and  _90
REMARK   35  A    between atoms: _92  and  _94
REMARK   36  A    between atoms: _94  and  _95
REMARK   37  A    between atoms: _94  and  _97
REMARK   38  A    between atoms: _100  and  _102
REMARK   39  A    between atoms: _102  and  _103
REMARK   40  A    between atoms: _102  and  _105
REMARK   41  A    between atoms: _105  and  _106
REMARK   42  A    between atoms: _108  and  _110
REMARK   43  A    between atoms: _110  and  _111
REMARK   44  A    between atoms: _114  and  _116
REMARK   45  A    between atoms: _116  and  _117
REMARK   46  A    between atoms: _116  and  _119
REMARK   47  A    between atoms: _119  and  _120
REMARK   48  A    between atoms: _130  and  _132
REMARK   49  A    between atoms: _132  and  _133
REMARK   50  A    between atoms: _132  and  _135
REMARK   51  A    between atoms: _138  and  _140
REMARK   52  A    between atoms: _140  and  _141
REMARK   53  A    between atoms: _140  and  _143
REMARK   54  A    between atoms: _143  and  _144
REMARK   55  A    between atoms: _144  and  _145
REMARK   56  A    between atoms: _150  and  _152
REMARK   57  A    between atoms: _152  and  _153
REMARK   58  A    between atoms: _155  and  _157
REMARK   59  A    between atoms: _157  and  _158
REMARK   60  A    between atoms: _161  and  _163
REMARK   61  A    between atoms: _163  and  _164
REMARK   62  A    between atoms: _163  and  _166
REMARK   63  A    between atoms: _166  and  _167
REMARK   64  A    between atoms: _170  and  _172
REMARK   65  A    between atoms: _172  and  _173
REMARK   66  A    between atoms: _175  and  _177
REMARK   67  A    between atoms: _177  and  _178
REMARK   68  A    between atoms: _180  and  _182
REMARK   69  A    between atoms: _182  and  _183
REMARK   70  A    between atoms: _182  and  _185
REMARK   71  A    between atoms: _185  and  _186
REMARK   72  A    between atoms: _186  and  _187
REMARK   73  A    between atoms: _187  and  _188
REMARK   74  A    between atoms: _188  and  _189
REMARK   75  A    between atoms: _193  and  _195
REMARK   76  A    between atoms: _195  and  _196
REMARK   77  A    between atoms: _195  and  _198
REMARK   78  A    between atoms: _198  and  _199
REMARK   79  A    between atoms: _204  and  _205
REMARK   80  A    between atoms: _207  and  _209
REMARK   81  A    between atoms: _209  and  _210
REMARK   82  A    between atoms: _209  and  _212
REMARK   83  A    between atoms: _212  and  _213
REMARK   84  A    between atoms: _223  and  _225
REMARK   85  A    between atoms: _225  and  _226
REMARK   86  A    between atoms: _225  and  _228
REMARK   87  A    between atoms: _228  and  _229
REMARK   88  A    between atoms: _232  and  _234
REMARK   89  A    between atoms: _234  and  _235
REMARK   90  A    between atoms: _234  and  _237
REMARK   91  A    between atoms: _240  and  _242
REMARK   92  A    between atoms: _242  and  _243
REMARK   93  A    between atoms: _242  and  _245
REMARK   94  A    between atoms: _245  and  _246
REMARK   95  A    between atoms: _249  and  _251
REMARK   96  A    between atoms: _251  and  _252
REMARK   97  A    between atoms: _251  and  _254
REMARK   98  A    between atoms: _257  and  _258
REMARK   99  A    between atoms: _263  and  _265
REMARK  100  A    between atoms: _265  and  _266
REMARK  101  A    between atoms: _265  and  _268
REMARK  102  A    between atoms: _268  and  _269
REMARK  103  A    between atoms: _274  and  _275
REMARK  104  A    between atoms: _278  and  _279
REMARK  105  A    between atoms: _284  and  _286
REMARK  106  A    between atoms: _286  and  _287
REMARK  107  A    between atoms: _286  and  _289
REMARK  108  A    between atoms: _289  and  _290
REMARK  109  A    between atoms: _293  and  _295
REMARK  110  A    between atoms: _295  and  _296
REMARK  111  A    between atoms: _295  and  _298
REMARK  112  A    between atoms: _298  and  _299
REMARK  113  A    between atoms: _302  and  _304
REMARK  114  A    between atoms: _304  and  _305
REMARK  115  A    between atoms: _307  and  _309
REMARK  116  A    between atoms: _309  and  _310
REMARK  117  A    between atoms: _309  and  _312
REMARK  118  A    between atoms: _312  and  _313
REMARK  119  A    between atoms: _313  and  _314
REMARK  120  A    between atoms: _314  and  _315
REMARK  121  A    between atoms: _325  and  _326
REMARK  122  A    between atoms: _331  and  _333
REMARK  123  A    between atoms: _333  and  _334
REMARK  124  A    between atoms: _333  and  _336
REMARK  125  A    between atoms: _336  and  _337
REMARK  126  A    between atoms: _340  and  _342
REMARK  127  A    between atoms: _342  and  _343
REMARK  128  A    between atoms: _342  and  _345
REMARK  129  A    between atoms: _348  and  _350
REMARK  130  A    between atoms: _350  and  _351
REMARK  131  A    between atoms: _350  and  _353
REMARK  132  A    between atoms: _353  and  _354
REMARK  133  A    between atoms: _357  and  _359
REMARK  134  A    between atoms: _359  and  _360
REMARK  135  A    between atoms: _359  and  _362
REMARK  136  A    between atoms: _362  and  _363
REMARK  137  A    between atoms: _366  and  _368
REMARK  138  A    between atoms: _368  and  _369
REMARK  139  A    between atoms: _371  and  _373
REMARK  140  A    between atoms: _373  and  _374
REMARK  141  A    between atoms: _377  and  _379
REMARK  142  A    between atoms: _379  and  _380
REMARK  143  A    between atoms: _379  and  _382
REMARK  144  A    between atoms: _382  and  _383
REMARK  145  A    between atoms: _383  and  _384
REMARK  146  A    between atoms: _389  and  _391
REMARK  147  A    between atoms: _391  and  _392
REMARK  148  A    between atoms: _391  and  _394
REMARK  149  A    between atoms: _394  and  _395
REMARK  150  A    between atoms: _400  and  _402
REMARK  151  A    between atoms: _402  and  _403
REMARK  152  A    between atoms: _402  and  _405
REMARK  153  A    between atoms: _405  and  _406
REMARK  154  A    between atoms: _408  and  _410
REMARK  155  A    between atoms: _410  and  _411
REMARK  156  A    between atoms: _410  and  _413
REMARK  157  A    between atoms: _416  and  _418
REMARK  158  A    between atoms: _418  and  _419
REMARK  159  A    between atoms: _418  and  _421
REMARK  160  A    between atoms: _421  and  _422
REMARK  161  A    between atoms: _424  and  _426
REMARK  162  A    between atoms: _426  and  _427
REMARK  163  A    between atoms: _430  and  _432
REMARK  164  A    between atoms: _432  and  _433
REMARK  165  A    between atoms: _432  and  _435
REMARK  166  A    between atoms: _435  and  _436
REMARK  167  A    between atoms: _446  and  _448
REMARK  168  A    between atoms: _448  and  _449
REMARK  169  A    between atoms: _448  and  _451
REMARK  170  A    between atoms: _454  and  _456
REMARK  171  A    between atoms: _456  and  _457
REMARK  172  A    between atoms: _456  and  _459
REMARK  173  A    between atoms: _459  and  _460
REMARK  174  A    between atoms: _460  and  _461
REMARK  175  A    between atoms: _466  and  _468
REMARK  176  A    between atoms: _468  and  _469
REMARK  177  A    between atoms: _471  and  _473
REMARK  178  A    between atoms: _473  and  _474
REMARK  179  A    between atoms: _477  and  _479
REMARK  180  A    between atoms: _479  and  _480
REMARK  181  A    between atoms: _479  and  _482
REMARK  182  A    between atoms: _482  and  _483
REMARK  183  A    between atoms: _486  and  _488
REMARK  184  A    between atoms: _488  and  _489
REMARK  185  A    between atoms: _491  and  _493
REMARK  186  A    between atoms: _493  and  _494
REMARK  187  A    between atoms: _496  and  _498
REMARK  188  A    between atoms: _498  and  _499
REMARK  189  A    between atoms: _498  and  _501
REMARK  190  A    between atoms: _501  and  _502
REMARK  191  A    between atoms: _502  and  _503
REMARK  192  A    between atoms: _503  and  _504
REMARK  193  A    between atoms: _504  and  _505
REMARK  194  A    between atoms: _509  and  _511
REMARK  195  A    between atoms: _511  and  _512
REMARK  196  A    between atoms: _511  and  _514
REMARK  197  A    between atoms: _514  and  _515
REMARK  198  A    between atoms: _515  and  _516
REMARK  199  A    between atoms: _516  and  _517
REMARK  200  A    between atoms: _526  and  _528
REMARK  201  A    between atoms: _528  and  _529
REMARK  202  A    between atoms: _528  and  _531
REMARK  203  A    between atoms: _531  and  _532
REMARK  204  A    between atoms: _537  and  _538
REMARK  205  A    between atoms: _540  and  _542
REMARK  206  A    between atoms: _542  and  _543
REMARK  207  A    between atoms: _542  and  _545
REMARK  208  A    between atoms: _545  and  _546
REMARK  209  A    between atoms: _556  and  _558
REMARK  210  A    between atoms: _558  and  _559
REMARK  211  A    between atoms: _558  and  _561
REMARK  212  A    between atoms: _561  and  _562
REMARK  213  A    between atoms: _564  and  _566
REMARK  214  A    between atoms: _566  and  _567
REMARK  215  A    between atoms: _566  and  _569
REMARK  216  A    between atoms: _569  and  _570
REMARK  217  A    between atoms: _573  and  _575
REMARK  218  A    between atoms: _575  and  _576
REMARK  219  A    between atoms: _575  and  _578
REMARK  220  A    between atoms: _581  and  _583
REMARK  221  A    between atoms: _583  and  _584
REMARK  222  A    between atoms: _583  and  _586
REMARK  223  A    between atoms: _586  and  _587
REMARK  224  A    between atoms: _590  and  _592
REMARK  225  A    between atoms: _592  and  _593
REMARK  226  A    between atoms: _592  and  _595
REMARK  227  A    between atoms: _598  and  _599
REMARK  228  A    between atoms: _604  and  _606
REMARK  229  A    between atoms: _606  and  _607
REMARK  230  A    between atoms: _606  and  _609
REMARK  231  A    between atoms: _609  and  _610
REMARK  232  A    between atoms: _615  and  _616
REMARK  233  A    between atoms: _619  and  _620
REMARK  234  A    between atoms: _625  and  _627
REMARK  235  A    between atoms: _627  and  _628
REMARK  236  A    between atoms: _627  and  _630
REMARK  237  A    between atoms: _630  and  _631
REMARK  238  A    between atoms: _634  and  _636
REMARK  239  A    between atoms: _636  and  _637
REMARK  240  A    between atoms: _636  and  _639
REMARK  241  A    between atoms: _639  and  _640
REMARK  242  A    between atoms: _643  and  _645
REMARK  243  A    between atoms: _645  and  _646
REMARK  244  A    between atoms: _648  and  _650
REMARK  245  A    between atoms: _650  and  _651
REMARK  246  A    between atoms: _650  and  _653
REMARK  247  A    between atoms: _653  and  _654
REMARK  248  A    between atoms: _654  and  _655
REMARK  249  A    between atoms: _655  and  _656
REMARK  250  A    between atoms: _665  and  _667
REMARK  251  A    between atoms: _667  and  _668
REMARK  252  A    between atoms: _667  and  _670
REMARK  253  A    between atoms: _670  and  _671
REMARK                            x       y       z     vdW  Elec       q    Type
REMARK                         _______ _______ _______ _____ _____    ______ ____
ROOT
ATOM      1  CA  LEU A   6       2.854   4.681   4.287  0.00  0.00    +0.149 C 
ENDROOT
BRANCH   1   2
ATOM      2  C   LEU A   6       2.753   4.291   2.836  0.00  0.00    +0.241 C 
ATOM      3  N   LEU A   7       3.152   3.051   2.510  0.00  0.00    -0.297 N 
ATOM      4  H   LEU A   7       3.582   2.445   3.237  0.00  0.00    +0.150 HD
ATOM      5  O   LEU A   6       2.307   5.086   1.979  0.00  0.00    -0.273 OA
BRANCH   3   6
ATOM      6  CA  LEU A   7       2.992   2.538   1.151  0.00  0.00    +0.149 C 
BRANCH   6   7
ATOM      7  C   LEU A   7       1.769   1.647   1.170  0.00  0.00    +0.241 C 
ATOM      8  O   LEU A   7       1.752   0.585   1.808  0.00  0.00    -0.273 OA
ATOM      9  N   GLY A   8       0.704   2.147   0.539  0.00  0.00    -0.295 N 
ATOM     10  H   GLY A   8       0.804   2.995  -0.054  0.00  0.00    +0.150 HD
BRANCH   9  11
ATOM     11  CA  GLY A   8      -0.585   1.515   0.677  0.00  0.00    +0.176 C 
BRANCH  11  12
ATOM     12  C   GLY A   8      -0.939   0.565  -0.462  0.00  0.00    +0.243 C 
ATOM     13  N   ARG A   9      -2.214   0.202  -0.477  0.00  0.00    -0.297 N 
ATOM     14  H   ARG A   9      -2.879   0.644   0.189  0.00  0.00    +0.150 HD
ATOM     15  O   GLY A   8      -0.099   0.199  -1.313  0.00  0.00    -0.273 OA
BRANCH  13  16
ATOM     16  CA  ARG A   9      -2.710  -0.826  -1.429  0.00  0.00    +0.149 C 
BRANCH  16  17
ATOM     17  C   ARG A   9      -2.641  -0.308  -2.848  0.00  0.00    +0.241 C 
ATOM     18  N   ASP A  10      -2.714   1.012  -3.064  0.00  0.00    -0.298 N 
ATOM     19  H   ASP A  10      -2.919   1.637  -2.259  0.00  0.00    +0.150 HD
ATOM     20  O   ARG A   9      -2.531  -1.140  -3.794  0.00  0.00    -0.273 OA
BRANCH  18  21
ATOM     21  CA  ASP A  10      -2.522   1.600  -4.357  0.00  0.00    +0.148 C 
BRANCH  21  22
ATOM     22  C   ASP A  10      -1.200   1.136  -4.961  0.00  0.00    +0.227 C 
ATOM     23  O   ASP A  10      -1.172   0.657  -6.119  0.00  0.00    -0.286 OA
ENDBRANCH  21  22
BRANCH  21  24
ATOM     24  CB  ASP A  10      -2.636   3.122  -4.258  0.00  0.00    +0.142 C 
BRANCH  24  25
ATOM     25  CG  ASP A  10      -1.604   3.755  -3.299  0.00  0.00    +0.367 C 
ATOM     26  OD2 ASP A  10      -1.161   3.117  -2.320  0.00  0.00    -0.246 OA
ATOM     27  OD1 ASP A  10      -1.340   4.944  -3.508  0.00  0.00    -0.246 OA
ENDBRANCH  24  25
ENDBRANCH  21  24
ENDBRANCH  18  21
ENDBRANCH  16  17
BRANCH  16  28
ATOM     28  CB  ARG A   9      -4.134  -1.204  -1.090  0.00  0.00    +0.033 C 
BRANCH  28  29
ATOM     29  CG  ARG A   9      -4.266  -1.884   0.302  0.00  0.00    +0.045 C 
BRANCH  29  30
ATOM     30  CD  ARG A   9      -5.625  -2.491   0.536  0.00  0.00    +0.174 C 
BRANCH  30  31
ATOM     31  NE  ARG A   9      -6.710  -1.487   0.501  0.00  0.00    -0.265 N 
ATOM     32  CZ  ARG A   9      -7.191  -0.816   1.544  0.00  0.00    +0.342 C 
ATOM     33  NH2 ARG A   9      -6.706  -0.993   2.768  0.00  0.00    -0.292 N 
ATOM     34 HH21 ARG A   9      -7.100  -0.455   3.566  0.00  0.00    +0.255 HD
ATOM     35 HH22 ARG A   9      -5.932  -1.669   2.928  0.00  0.00    +0.255 HD
ATOM     36  NH1 ARG A   9      -8.211   0.046   1.388  0.00  0.00    -0.292 N 
ATOM     37 HH11 ARG A   9      -8.582   0.567   2.208  0.00  0.00    +0.255 HD
ATOM     38 HH12 ARG A   9      -8.629   0.192   0.447  0.00  0.00    +0.255 HD
ATOM     39  HE  ARG A   9      -7.137  -1.287  -0.426  0.00  0.00    +0.259 HD
ENDBRANCH  30  31
ENDBRANCH  29  30
ENDBRANCH  28  29
ENDBRANCH  16  28
ENDBRANCH  13  16
ENDBRANCH  11  12
ENDBRANCH   9  11
ENDBRANCH   6   7
BRANCH   6  40
ATOM     40  CB  LEU A   7       4.260   1.853   0.647  0.00  0.00    +0.029 C 
BRANCH  40  41
ATOM     41  CG  LEU A   7       4.160   1.467  -0.827  0.00  0.00    +0.002 C 
ATOM     42  CD2 LEU A   7       3.658   0.044  -0.903  0.00  0.00    +0.000 C 
ATOM     43  CD1 LEU A   7       5.480   1.629  -1.521  0.00  0.00    +0.000 C 
ENDBRANCH  40  41
ENDBRANCH   6  40
ENDBRANCH   3   6
ENDBRANCH   1   2
BRANCH   1  46
ATOM     44  C   PRO A   5       4.685   6.120   5.107  0.00  0.00    +0.241 C 
ATOM     45  O   PRO A   5       5.266   5.171   5.690  0.00  0.00    -0.273 OA
ATOM     46  N   LEU A   6       3.599   5.972   4.344  0.00  0.00    -0.297 N 
ATOM     47  H   LEU A   6       3.265   6.776   3.776  0.00  0.00    +0.150 HD
BRANCH  44  54
ATOM     48  C   TYR A   4       5.245   7.746   7.554  0.00  0.00    +0.244 C 
ATOM     49  O   TYR A   4       4.014   7.540   7.607  0.00  0.00    -0.273 OA
ATOM     50  N   PRO A   5       5.931   7.734   6.425  0.00  0.00    -0.272 N 
ATOM     51  CD  PRO A   5       7.383   7.988   6.258  0.00  0.00    +0.094 C 
ATOM     52  CG  PRO A   5       7.532   8.200   4.812  0.00  0.00    +0.024 C 
ATOM     53  CB  PRO A   5       6.330   7.682   4.073  0.00  0.00    +0.031 C 
ATOM     54  CA  PRO A   5       5.250   7.498   5.150  0.00  0.00    +0.152 C 
BRANCH  48  55
ATOM     55  CA  TYR A   4       6.067   7.955   8.817  0.00  0.00    +0.153 C 
BRANCH  55  58
ATOM     56  C   PRO A   3       5.591   8.989  10.940  0.00  0.00    +0.241 C 
ATOM     57  O   PRO A   3       6.741   9.318  11.049  0.00  0.00    -0.273 OA
ATOM     58  N   TYR A   4       5.158   8.269   9.914  0.00  0.00    -0.297 N 
ATOM     59  H   TYR A   4       4.175   7.930   9.892  0.00  0.00    +0.150 HD
BRANCH  56  65
ATOM     60  C   CYS A   2       2.718  10.362  10.781  0.00  0.00    +0.245 C 
ATOM     61  N   PRO A   3       3.165   9.375  11.566  0.00  0.00    -0.272 N 
ATOM     62  CD  PRO A   3       2.356   8.318  12.181  0.00  0.00    +0.094 C 
ATOM     63  CG  PRO A   3       3.427   7.422  12.816  0.00  0.00    +0.024 C 
ATOM     64  CB  PRO A   3       4.566   8.324  13.154  0.00  0.00    +0.031 C 
ATOM     65  CA  PRO A   3       4.569   9.358  12.000  0.00  0.00    +0.152 C 
ATOM     66  O   CYS A   2       3.462  11.237  10.386  0.00  0.00    -0.273 OA
BRANCH  60  67
ATOM     67  CA  CYS A   2       1.250  10.403  10.423  0.00  0.00    +0.161 C 
BRANCH  67  70
ATOM     68  C   ASP A   1       0.279  12.319  11.551  0.00  0.00    +0.239 C 
ATOM     69  O   ASP A   1       0.197  11.694  12.627  0.00  0.00    -0.274 OA
ATOM     70  N   CYS A   2       0.778  11.776  10.424  0.00  0.00    -0.296 N 
ATOM     71  H   CYS A   2       0.825  12.342   9.552  0.00  0.00    +0.150 HD
BRANCH  68  72
ATOM     72  CA  ASP A   1      -0.165  13.779  11.479  0.00  0.00    +0.156 C 
BRANCH  72  73
ATOM     73  N   ASP A   1       0.197  14.409  10.203  0.00  0.00    -0.238 NA
ATOM     74  H   ASP A   1      -0.522  14.488   9.455  0.00  0.00    +0.142 HD
ENDBRANCH  72  73
BRANCH  72  75
ATOM     75  CB  ASP A   1      -1.687  13.897  11.723  0.00  0.00    +0.140 C 
BRANCH  75  76
ATOM     76  CG  ASP A   1      -2.120  15.333  11.895  0.00  0.00    +0.367 C 
ATOM     77  OD2 ASP A   1      -1.471  15.997  12.732  0.00  0.00    -0.246 OA
ATOM     78  OD1 ASP A   1      -3.045  15.773  11.197  0.00  0.00    -0.246 OA
ENDBRANCH  75  76
ENDBRANCH  72  75
ENDBRANCH  68  72
ENDBRANCH  67  70
BRANCH  67  79
ATOM     79  CB  CYS A   2       1.061   9.857   9.022  0.00  0.00    +0.098 C 
ATOM     80  SG  CYS A   2      -0.412   9.059   8.692  0.00  0.00    -0.080 S 
ENDBRANCH  67  79
ENDBRANCH  60  67
ENDBRANCH  56  65
ENDBRANCH  55  58
BRANCH  55  81
ATOM     81  CB  TYR A   4       7.001   6.739   9.068  0.00  0.00    +0.055 C 
BRANCH  81  82
ATOM     82  CG  TYR A   4       6.344   5.757   9.983  0.00  0.00    -0.020 A 
ATOM     83  CD2 TYR A   4       6.831   5.576  11.279  0.00  0.00    -0.001 A 
ATOM     84  CE2 TYR A   4       6.145   4.701  12.225  0.00  0.00    +0.036 A 
ATOM     85  CZ  TYR A   4       4.997   4.053  11.748  0.00  0.00    +0.134 A 
ATOM     86  CE1 TYR A   4       4.513   4.269  10.465  0.00  0.00    +0.036 A 
ATOM     87  CD1 TYR A   4       5.187   5.120   9.595  0.00  0.00    -0.001 A 
BRANCH  85  88
ATOM     88  OH  TYR A   4       4.341   3.181  12.543  0.00  0.00    -0.506 OA
ATOM     89  HH  TYR A   4       4.796   3.129  13.421  0.00  0.00    +0.292 HD
ENDBRANCH  85  88
ENDBRANCH  81  82
ENDBRANCH  55  81
ENDBRANCH  48  55
ENDBRANCH  44  54
ENDBRANCH   1  46
BRANCH   1  90
ATOM     90  CB  LEU A   6       1.452   4.833   4.852  0.00  0.00    +0.029 C 
BRANCH  90  91
ATOM     91  CG  LEU A   6       1.372   5.387   6.259  0.00  0.00    +0.002 C 
ATOM     92  CD2 LEU A   6       2.077   4.498   7.295  0.00  0.00    +0.000 C 
ATOM     93  CD1 LEU A   6      -0.084   5.624   6.645  0.00  0.00    +0.000 C 
ENDBRANCH  90  91
ENDBRANCH   1  90
TORSDOF 34
REMARK  Name = ../refined-set-2016/3slz/3slz_pocket.pdb
REMARK  253 active torsions:
REMARK  status: ('A' for Active; 'I' for Inactive)
REMARK    1  A    between atoms: _2  and  _3
REMARK    2  A    between atoms: _9  and  _10
REMARK    3  A    between atoms: _15  and  _17
REMARK    4  A    between atoms: _17  and  _18
REMARK    5  A    between atoms: _17  and  _20
REMARK    6  A    between atoms: _20  and  _21
REMARK    7  A    between atoms: _24  and  _26
REMARK    8  A    between atoms: _26  and  _27
REMARK    9  A    between atoms: _26  and  _29
REMARK   10  A    between atoms: _32  and  _34
REMARK   11  A    between atoms: _34  and  _35
REMARK   12  A    between atoms: _34  and  _37
REMARK   13  A    between atoms: _37  and  _38
REMARK   14  A    between atoms: _41  and  _43
REMARK   15  A    between atoms: _43  and  _44
REMARK   16  A    between atoms: _43  and  _46
REMARK   17  A    between atoms: _46  and  _47
REMARK   18  A    between atoms: _50  and  _52
REMARK   19  A    between atoms: _52  and  _53
REMARK   20  A    between atoms: _55  and  _57
REMARK   21  A    between atoms: _57  and  _58
REMARK   22  A    between atoms: _61  and  _63
REMARK   23  A    between atoms: _63  and  _64
REMARK   24  A    between atoms: _63  and  _66
REMARK   25  A    between atoms: _66  and  _67
REMARK   26  A    between atoms: _67  and  _68
REMARK   27  A    between atoms: _73  and  _75
REMARK   28  A    between atoms: _75  and  _76
REMARK   29  A    between atoms: _75  and  _78
REMARK   30  A    between atoms: _78  and  _79
REMARK   31  A    between atoms: _84  and  _86
REMARK   32  A    between atoms: _86  and  _87
REMARK   33  A    between atoms: _86  and  _89
REMARK   34  A    between atoms: _89  and  _90
REMARK   35  A    between atoms: _92  and  _94
REMARK   36  A    between atoms: _94  and  _95
REMARK   37  A    between atoms: _94  and  _97
REMARK   38  A    between atoms: _100  and  _102
REMARK   39  A    between atoms: _102  and  _103
REMARK   40  A    between atoms: _102  and  _105
REMARK   41  A    between atoms: _105  and  _106
REMARK   42  A    between atoms: _108  and  _110
REMARK   43  A    between atoms: _110  and  _111
REMARK   44  A    between atoms: _114  and  _116
REMARK   45  A    between atoms: _116  and  _117
REMARK   46  A    between atoms: _116  and  _119
REMARK   47  A    between atoms: _119  and  _120
REMARK   48  A    between atoms: _130  and  _132
REMARK   49  A    between atoms: _132  and  _133
REMARK   50  A    between atoms: _132  and  _135
REMARK   51  A    between atoms: _138  and  _140
REMARK   52  A    between atoms: _140  and  _141
REMARK   53  A    between atoms: _140  and  _143
REMARK   54  A    between atoms: _143  and  _144
REMARK   55  A    between atoms: _144  and  _145
REMARK   56  A    between atoms: _150  and  _152
REMARK   57  A    between atoms: _152  and  _153
REMARK   58  A    between atoms: _155  and  _157
REMARK   59  A    between atoms: _157  and  _158
REMARK   60  A    between atoms: _161  and  _163
REMARK   61  A    between atoms: _163  and  _164
REMARK   62  A    between atoms: _163  and  _166
REMARK   63  A    between atoms: _166  and  _167
REMARK   64  A    between atoms: _170  and  _172
REMARK   65  A    between atoms: _172  and  _173
REMARK   66  A    between atoms: _175  and  _177
REMARK   67  A    between atoms: _177  and  _178
REMARK   68  A    between atoms: _180  and  _182
REMARK   69  A    between atoms: _182  and  _183
REMARK   70  A    between atoms: _182  and  _185
REMARK   71  A    between atoms: _185  and  _186
REMARK   72  A    between atoms: _186  and  _187
REMARK   73  A    between atoms: _187  and  _188
REMARK   74  A    between atoms: _188  and  _189
REMARK   75  A    between atoms: _193  and  _195
REMARK   76  A    between atoms: _195  and  _196
REMARK   77  A    between atoms: _195  and  _198
REMARK   78  A    between atoms: _198  and  _199
REMARK   79  A    between atoms: _204  and  _205
REMARK   80  A    between atoms: _207  and  _209
REMARK   81  A    between atoms: _209  and  _210
REMARK   82  A    between atoms: _209  and  _212
REMARK   83  A    between atoms: _212  and  _213
REMARK   84  A    between atoms: _223  and  _225
REMARK   85  A    between atoms: _225  and  _226
REMARK   86  A    between atoms: _225  and  _228
REMARK   87  A    between atoms: _228  and  _229
REMARK   88  A    between atoms: _232  and  _234
REMARK   89  A    between atoms: _234  and  _235
REMARK   90  A    between atoms: _234  and  _237
REMARK   91  A    between atoms: _240  and  _242
REMARK   92  A    between atoms: _242  and  _243
REMARK   93  A    between atoms: _242  and  _245
REMARK   94  A    between atoms: _245  and  _246
REMARK   95  A    between atoms: _249  and  _251
REMARK   96  A    between atoms: _251  and  _252
REMARK   97  A    between atoms: _251  and  _254
REMARK   98  A    between atoms: _257  and  _258
REMARK   99  A    between atoms: _263  and  _265
REMARK  100  A    between atoms: _265  and  _266
REMARK  101  A    between atoms: _265  and  _268
REMARK  102  A    between atoms: _268  and  _269
REMARK  103  A    between atoms: _274  and  _275
REMARK  104  A    between atoms: _278  and  _279
REMARK  105  A    between atoms: _284  and  _286
REMARK  106  A    between atoms: _286  and  _287
REMARK  107  A    between atoms: _286  and  _289
REMARK  108  A    between atoms: _289  and  _290
REMARK  109  A    between atoms: _293  and  _295
REMARK  110  A    between atoms: _295  and  _296
REMARK  111  A    between atoms: _295  and  _298
REMARK  112  A    between atoms: _298  and  _299
REMARK  113  A    between atoms: _302  and  _304
REMARK  114  A    between atoms: _304  and  _305
REMARK  115  A    between atoms: _307  and  _309
REMARK  116  A    between atoms: _309  and  _310
REMARK  117  A    between atoms: _309  and  _312
REMARK  118  A    between atoms: _312  and  _313
REMARK  119  A    between atoms: _313  and  _314
REMARK  120  A    between atoms: _314  and  _315
REMARK  121  A    between atoms: _325  and  _326
REMARK  122  A    between atoms: _331  and  _333
REMARK  123  A    between atoms: _333  and  _334
REMARK  124  A    between atoms: _333  and  _336
REMARK  125  A    between atoms: _336  and  _337
REMARK  126  A    between atoms: _340  and  _342
REMARK  127  A    between atoms: _342  and  _343
REMARK  128  A    between atoms: _342  and  _345
REMARK  129  A    between atoms: _348  and  _350
REMARK  130  A    between atoms: _350  and  _351
REMARK  131  A    between atoms: _350  and  _353
REMARK  132  A    between atoms: _353  and  _354
REMARK  133  A    between atoms: _357  and  _359
REMARK  134  A    between atoms: _359  and  _360
REMARK  135  A    between atoms: _359  and  _362
REMARK  136  A    between atoms: _362  and  _363
REMARK  137  A    between atoms: _366  and  _368
REMARK  138  A    between atoms: _368  and  _369
REMARK  139  A    between atoms: _371  and  _373
REMARK  140  A    between atoms: _373  and  _374
REMARK  141  A    between atoms: _377  and  _379
REMARK  142  A    between atoms: _379  and  _380
REMARK  143  A    between atoms: _379  and  _382
REMARK  144  A    between atoms: _382  and  _383
REMARK  145  A    between atoms: _383  and  _384
REMARK  146  A    between atoms: _389  and  _391
REMARK  147  A    between atoms: _391  and  _392
REMARK  148  A    between atoms: _391  and  _394
REMARK  149  A    between atoms: _394  and  _395
REMARK  150  A    between atoms: _400  and  _402
REMARK  151  A    between atoms: _402  and  _403
REMARK  152  A    between atoms: _402  and  _405
REMARK  153  A    between atoms: _405  and  _406
REMARK  154  A    between atoms: _408  and  _410
REMARK  155  A    between atoms: _410  and  _411
REMARK  156  A    between atoms: _410  and  _413
REMARK  157  A    between atoms: _416  and  _418
REMARK  158  A    between atoms: _418  and  _419
REMARK  159  A    between atoms: _418  and  _421
REMARK  160  A    between atoms: _421  and  _422
REMARK  161  A    between atoms: _424  and  _426
REMARK  162  A    between atoms: _426  and  _427
REMARK  163  A    between atoms: _430  and  _432
REMARK  164  A    between atoms: _432  and  _433
REMARK  165  A    between atoms: _432  and  _435
REMARK  166  A    between atoms: _435  and  _436
REMARK  167  A    between atoms: _446  and  _448
REMARK  168  A    between atoms: _448  and  _449
REMARK  169  A    between atoms: _448  and  _451
REMARK  170  A    between atoms: _454  and  _456
REMARK  171  A    between atoms: _456  and  _457
REMARK  172  A    between atoms: _456  and  _459
REMARK  173  A    between atoms: _459  and  _460
REMARK  174  A    between atoms: _460  and  _461
REMARK  175  A    between atoms: _466  and  _468
REMARK  176  A    between atoms: _468  and  _469
REMARK  177  A    between atoms: _471  and  _473
REMARK  178  A    between atoms: _473  and  _474
REMARK  179  A    between atoms: _477  and  _479
REMARK  180  A    between atoms: _479  and  _480
REMARK  181  A    between atoms: _479  and  _482
REMARK  182  A    between atoms: _482  and  _483
REMARK  183  A    between atoms: _486  and  _488
REMARK  184  A    between atoms: _488  and  _489
REMARK  185  A    between atoms: _491  and  _493
REMARK  186  A    between atoms: _493  and  _494
REMARK  187  A    between atoms: _496  and  _498
REMARK  188  A    between atoms: _498  and  _499
REMARK  189  A    between atoms: _498  and  _501
REMARK  190  A    between atoms: _501  and  _502
REMARK  191  A    between atoms: _502  and  _503
REMARK  192  A    between atoms: _503  and  _504
REMARK  193  A    between atoms: _504  and  _505
REMARK  194  A    between atoms: _509  and  _511
REMARK  195  A    between atoms: _511  and  _512
REMARK  196  A    between atoms: _511  and  _514
REMARK  197  A    between atoms: _514  and  _515
REMARK  198  A    between atoms: _515  and  _516
REMARK  199  A    between atoms: _516  and  _517
REMARK  200  A    between atoms: _526  and  _528
REMARK  201  A    between atoms: _528  and  _529
REMARK  202  A    between atoms: _528  and  _531
REMARK  203  A    between atoms: _531  and  _532
REMARK  204  A    between atoms: _537  and  _538
REMARK  205  A    between atoms: _540  and  _542
REMARK  206  A    between atoms: _542  and  _543
REMARK  207  A    between atoms: _542  and  _545
REMARK  208  A    between atoms: _545  and  _546
REMARK  209  A    between atoms: _556  and  _558
REMARK  210  A    between atoms: _558  and  _559
REMARK  211  A    between atoms: _558  and  _561
REMARK  212  A    between atoms: _561  and  _562
REMARK  213  A    between atoms: _564  and  _566
REMARK  214  A    between atoms: _566  and  _567
REMARK  215  A    between atoms: _566  and  _569
REMARK  216  A    between atoms: _569  and  _570
REMARK  217  A    between atoms: _573  and  _575
REMARK  218  A    between atoms: _575  and  _576
REMARK  219  A    between atoms: _575  and  _578
REMARK  220  A    between atoms: _581  and  _583
REMARK  221  A    between atoms: _583  and  _584
REMARK  222  A    between atoms: _583  and  _586
REMARK  223  A    between atoms: _586  and  _587
REMARK  224  A    between atoms: _590  and  _592
REMARK  225  A    between atoms: _592  and  _593
REMARK  226  A    between atoms: _592  and  _595
REMARK  227  A    between atoms: _598  and  _599
REMARK  228  A    between atoms: _604  and  _606
REMARK  229  A    between atoms: _606  and  _607
REMARK  230  A    between atoms: _606  and  _609
REMARK  231  A    between atoms: _609  and  _610
REMARK  232  A    between atoms: _615  and  _616
REMARK  233  A    between atoms: _619  and  _620
REMARK  234  A    between atoms: _625  and  _627
REMARK  235  A    between atoms: _627  and  _628
REMARK  236  A    between atoms: _627  and  _630
REMARK  237  A    between atoms: _630  and  _631
REMARK  238  A    between atoms: _634  and  _636
REMARK  239  A    between atoms: _636  and  _637
REMARK  240  A    between atoms: _636  and  _639
REMARK  241  A    between atoms: _639  and  _640
REMARK  242  A    between atoms: _643  and  _645
REMARK  243  A    between atoms: _645  and  _646
REMARK  244  A    between atoms: _648  and  _650
REMARK  245  A    between atoms: _650  and  _651
REMARK  246  A    between atoms: _650  and  _653
REMARK  247  A    between atoms: _653  and  _654
REMARK  248  A    between atoms: _654  and  _655
REMARK  249  A    between atoms: _655  and  _656
REMARK  250  A    between atoms: _665  and  _667
REMARK  251  A    between atoms: _667  and  _668
REMARK  252  A    between atoms: _667  and  _670
REMARK  253  A    between atoms: _670  and  _671
REMARK                            x       y       z     vdW  Elec       q    Type
REMARK                         _______ _______ _______ _____ _____    ______ ____
ROOT
ATOM      1  O   HOH     1      -5.294   5.503  11.356  0.00  0.00    +0.000 OA
ENDROOT
TORSDOF 0
REMARK  Name = ../refined-set-2016/3slz/3slz_pocket.pdb
REMARK  253 active torsions:
REMARK  status: ('A' for Active; 'I' for Inactive)
REMARK    1  A    between atoms: _2  and  _3
REMARK    2  A    between atoms: _9  and  _10
REMARK    3  A    between atoms: _15  and  _17
REMARK    4  A    between atoms: _17  and  _18
REMARK    5  A    between atoms: _17  and  _20
REMARK    6  A    between atoms: _20  and  _21
REMARK    7  A    between atoms: _24  and  _26
REMARK    8  A    between atoms: _26  and  _27
REMARK    9  A    between atoms: _26  and  _29
REMARK   10  A    between atoms: _32  and  _34
REMARK   11  A    between atoms: _34  and  _35
REMARK   12  A    between atoms: _34  and  _37
REMARK   13  A    between atoms: _37  and  _38
REMARK   14  A    between atoms: _41  and  _43
REMARK   15  A    between atoms: _43  and  _44
REMARK   16  A    between atoms: _43  and  _46
REMARK   17  A    between atoms: _46  and  _47
REMARK   18  A    between atoms: _50  and  _52
REMARK   19  A    between atoms: _52  and  _53
REMARK   20  A    between atoms: _55  and  _57
REMARK   21  A    between atoms: _57  and  _58
REMARK   22  A    between atoms: _61  and  _63
REMARK   23  A    between atoms: _63  and  _64
REMARK   24  A    between atoms: _63  and  _66
REMARK   25  A    between atoms: _66  and  _67
REMARK   26  A    between atoms: _67  and  _68
REMARK   27  A    between atoms: _73  and  _75
REMARK   28  A    between atoms: _75  and  _76
REMARK   29  A    between atoms: _75  and  _78
REMARK   30  A    between atoms: _78  and  _79
REMARK   31  A    between atoms: _84  and  _86
REMARK   32  A    between atoms: _86  and  _87
REMARK   33  A    between atoms: _86  and  _89
REMARK   34  A    between atoms: _89  and  _90
REMARK   35  A    between atoms: _92  and  _94
REMARK   36  A    between atoms: _94  and  _95
REMARK   37  A    between atoms: _94  and  _97
REMARK   38  A    between atoms: _100  and  _102
REMARK   39  A    between atoms: _102  and  _103
REMARK   40  A    between atoms: _102  and  _105
REMARK   41  A    between atoms: _105  and  _106
REMARK   42  A    between atoms: _108  and  _110
REMARK   43  A    between atoms: _110  and  _111
REMARK   44  A    between atoms: _114  and  _116
REMARK   45  A    between atoms: _116  and  _117
REMARK   46  A    between atoms: _116  and  _119
REMARK   47  A    between atoms: _119  and  _120
REMARK   48  A    between atoms: _130  and  _132
REMARK   49  A    between atoms: _132  and  _133
REMARK   50  A    between atoms: _132  and  _135
REMARK   51  A    between atoms: _138  and  _140
REMARK   52  A    between atoms: _140  and  _141
REMARK   53  A    between atoms: _140  and  _143
REMARK   54  A    between atoms: _143  and  _144
REMARK   55  A    between atoms: _144  and  _145
REMARK   56  A    between atoms: _150  and  _152
REMARK   57  A    between atoms: _152  and  _153
REMARK   58  A    between atoms: _155  and  _157
REMARK   59  A    between atoms: _157  and  _158
REMARK   60  A    between atoms: _161  and  _163
REMARK   61  A    between atoms: _163  and  _164
REMARK   62  A    between atoms: _163  and  _166
REMARK   63  A    between atoms: _166  and  _167
REMARK   64  A    between atoms: _170  and  _172
REMARK   65  A    between atoms: _172  and  _173
REMARK   66  A    between atoms: _175  and  _177
REMARK   67  A    between atoms: _177  and  _178
REMARK   68  A    between atoms: _180  and  _182
REMARK   69  A    between atoms: _182  and  _183
REMARK   70  A    between atoms: _182  and  _185
REMARK   71  A    between atoms: _185  and  _186
REMARK   72  A    between atoms: _186  and  _187
REMARK   73  A    between atoms: _187  and  _188
REMARK   74  A    between atoms: _188  and  _189
REMARK   75  A    between atoms: _193  and  _195
REMARK   76  A    between atoms: _195  and  _196
REMARK   77  A    between atoms: _195  and  _198
REMARK   78  A    between atoms: _198  and  _199
REMARK   79  A    between atoms: _204  and  _205
REMARK   80  A    between atoms: _207  and  _209
REMARK   81  A    between atoms: _209  and  _210
REMARK   82  A    between atoms: _209  and  _212
REMARK   83  A    between atoms: _212  and  _213
REMARK   84  A    between atoms: _223  and  _225
REMARK   85  A    between atoms: _225  and  _226
REMARK   86  A    between atoms: _225  and  _228
REMARK   87  A    between atoms: _228  and  _229
REMARK   88  A    between atoms: _232  and  _234
REMARK   89  A    between atoms: _234  and  _235
REMARK   90  A    between atoms: _234  and  _237
REMARK   91  A    between atoms: _240  and  _242
REMARK   92  A    between atoms: _242  and  _243
REMARK   93  A    between atoms: _242  and  _245
REMARK   94  A    between atoms: _245  and  _246
REMARK   95  A    between atoms: _249  and  _251
REMARK   96  A    between atoms: _251  and  _252
REMARK   97  A    between atoms: _251  and  _254
REMARK   98  A    between atoms: _257  and  _258
REMARK   99  A    between atoms: _263  and  _265
REMARK  100  A    between atoms: _265  and  _266
REMARK  101  A    between atoms: _265  and  _268
REMARK  102  A    between atoms: _268  and  _269
REMARK  103  A    between atoms: _274  and  _275
REMARK  104  A    between atoms: _278  and  _279
REMARK  105  A    between atoms: _284  and  _286
REMARK  106  A    between atoms: _286  and  _287
REMARK  107  A    between atoms: _286  and  _289
REMARK  108  A    between atoms: _289  and  _290
REMARK  109  A    between atoms: _293  and  _295
REMARK  110  A    between atoms: _295  and  _296
REMARK  111  A    between atoms: _295  and  _298
REMARK  112  A    between atoms: _298  and  _299
REMARK  113  A    between atoms: _302  and  _304
REMARK  114  A    between atoms: _304  and  _305
REMARK  115  A    between atoms: _307  and  _309
REMARK  116  A    between atoms: _309  and  _310
REMARK  117  A    between atoms: _309  and  _312
REMARK  118  A    between atoms: _312  and  _313
REMARK  119  A    between atoms: _313  and  _314
REMARK  120  A    between atoms: _314  and  _315
REMARK  121  A    between atoms: _325  and  _326
REMARK  122  A    between atoms: _331  and  _333
REMARK  123  A    between atoms: _333  and  _334
REMARK  124  A    between atoms: _333  and  _336
REMARK  125  A    between atoms: _336  and  _337
REMARK  126  A    between atoms: _340  and  _342
REMARK  127  A    between atoms: _342  and  _343
REMARK  128  A    between atoms: _342  and  _345
REMARK  129  A    between atoms: _348  and  _350
REMARK  130  A    between atoms: _350  and  _351
REMARK  131  A    between atoms: _350  and  _353
REMARK  132  A    between atoms: _353  and  _354
REMARK  133  A    between atoms: _357  and  _359
REMARK  134  A    between atoms: _359  and  _360
REMARK  135  A    between atoms: _359  and  _362
REMARK  136  A    between atoms: _362  and  _363
REMARK  137  A    between atoms: _366  and  _368
REMARK  138  A    between atoms: _368  and  _369
REMARK  139  A    between atoms: _371  and  _373
REMARK  140  A    between atoms: _373  and  _374
REMARK  141  A    between atoms: _377  and  _379
REMARK  142  A    between atoms: _379  and  _380
REMARK  143  A    between atoms: _379  and  _382
REMARK  144  A    between atoms: _382  and  _383
REMARK  145  A    between atoms: _383  and  _384
REMARK  146  A    between atoms: _389  and  _391
REMARK  147  A    between atoms: _391  and  _392
REMARK  148  A    between atoms: _391  and  _394
REMARK  149  A    between atoms: _394  and  _395
REMARK  150  A    between atoms: _400  and  _402
REMARK  151  A    between atoms: _402  and  _403
REMARK  152  A    between atoms: _402  and  _405
REMARK  153  A    between atoms: _405  and  _406
REMARK  154  A    between atoms: _408  and  _410
REMARK  155  A    between atoms: _410  and  _411
REMARK  156  A    between atoms: _410  and  _413
REMARK  157  A    between atoms: _416  and  _418
REMARK  158  A    between atoms: _418  and  _419
REMARK  159  A    between atoms: _418  and  _421
REMARK  160  A    between atoms: _421  and  _422
REMARK  161  A    between atoms: _424  and  _426
REMARK  162  A    between atoms: _426  and  _427
REMARK  163  A    between atoms: _430  and  _432
REMARK  164  A    between atoms: _432  and  _433
REMARK  165  A    between atoms: _432  and  _435
REMARK  166  A    between atoms: _435  and  _436
REMARK  167  A    between atoms: _446  and  _448
REMARK  168  A    between atoms: _448  and  _449
REMARK  169  A    between atoms: _448  and  _451
REMARK  170  A    between atoms: _454  and  _456
REMARK  171  A    between atoms: _456  and  _457
REMARK  172  A    between atoms: _456  and  _459
REMARK  173  A    between atoms: _459  and  _460
REMARK  174  A    between atoms: _460  and  _461
REMARK  175  A    between atoms: _466  and  _468
REMARK  176  A    between atoms: _468  and  _469
REMARK  177  A    between atoms: _471  and  _473
REMARK  178  A    between atoms: _473  and  _474
REMARK  179  A    between atoms: _477  and  _479
REMARK  180  A    between atoms: _479  and  _480
REMARK  181  A    between atoms: _479  and  _482
REMARK  182  A    between atoms: _482  and  _483
REMARK  183  A    between atoms: _486  and  _488
REMARK  184  A    between atoms: _488  and  _489
REMARK  185  A    between atoms: _491  and  _493
REMARK  186  A    between atoms: _493  and  _494
REMARK  187  A    between atoms: _496  and  _498
REMARK  188  A    between atoms: _498  and  _499
REMARK  189  A    between atoms: _498  and  _501
REMARK  190  A    between atoms: _501  and  _502
REMARK  191  A    between atoms: _502  and  _503
REMARK  192  A    between atoms: _503  and  _504
REMARK  193  A    between atoms: _504  and  _505
REMARK  194  A    between atoms: _509  and  _511
REMARK  195  A    between atoms: _511  and  _512
REMARK  196  A    between atoms: _511  and  _514
REMARK  197  A    between atoms: _514  and  _515
REMARK  198  A    between atoms: _515  and  _516
REMARK  199  A    between atoms: _516  and  _517
REMARK  200  A    between atoms: _526  and  _528
REMARK  201  A    between atoms: _528  and  _529
REMARK  202  A    between atoms: _528  and  _531
REMARK  203  A    between atoms: _531  and  _532
REMARK  204  A    between atoms: _537  and  _538
REMARK  205  A    between atoms: _540  and  _542
REMARK  206  A    between atoms: _542  and  _543
REMARK  207  A    between atoms: _542  and  _545
REMARK  208  A    between atoms: _545  and  _546
REMARK  209  A    between atoms: _556  and  _558
REMARK  210  A    between atoms: _558  and  _559
REMARK  211  A    between atoms: _558  and  _561
REMARK  212  A    between atoms: _561  and  _562
REMARK  213  A    between atoms: _564  and  _566
REMARK  214  A    between atoms: _566  and  _567
REMARK  215  A    between atoms: _566  and  _569
REMARK  216  A    between atoms: _569  and  _570
REMARK  217  A    between atoms: _573  and  _575
REMARK  218  A    between atoms: _575  and  _576
REMARK  219  A    between atoms: _575  and  _578
REMARK  220  A    between atoms: _581  and  _583
REMARK  221  A    between atoms: _583  and  _584
REMARK  222  A    between atoms: _583  and  _586
REMARK  223  A    between atoms: _586  and  _587
REMARK  224  A    between atoms: _590  and  _592
REMARK  225  A    between atoms: _592  and  _593
REMARK  226  A    between atoms: _592  and  _595
REMARK  227  A    between atoms: _598  and  _599
REMARK  228  A    between atoms: _604  and  _606
REMARK  229  A    between atoms: _606  and  _607
REMARK  230  A    between atoms: _606  and  _609
REMARK  231  A    between atoms: _609  and  _610
REMARK  232  A    between atoms: _615  and  _616
REMARK  233  A    between atoms: _619  and  _620
REMARK  234  A    between atoms: _625  and  _627
REMARK  235  A    between atoms: _627  and  _628
REMARK  236  A    between atoms: _627  and  _630
REMARK  237  A    between atoms: _630  and  _631
REMARK  238  A    between atoms: _634  and  _636
REMARK  239  A    between atoms: _636  and  _637
REMARK  240  A    between atoms: _636  and  _639
REMARK  241  A    between atoms: _639  and  _640
REMARK  242  A    between atoms: _643  and  _645
REMARK  243  A    between atoms: _645  and  _646
REMARK  244  A    between atoms: _648  and  _650
REMARK  245  A    between atoms: _650  and  _651
REMARK  246  A    between atoms: _650  and  _653
REMARK  247  A    between atoms: _653  and  _654
REMARK  248  A    between atoms: _654  and  _655
REMARK  249  A    between atoms: _655  and  _656
REMARK  250  A    between atoms: _665  and  _667
REMARK  251  A    between atoms: _667  and  _668
REMARK  252  A    between atoms: _667  and  _670
REMARK  253  A    between atoms: _670  and  _671
REMARK                            x       y       z     vdW  Elec       q    Type
REMARK                         _______ _______ _______ _____ _____    ______ ____
ROOT
ATOM      1  O   HOH     1     -12.514   1.037   3.589  0.00  0.00    +0.000 OA
ENDROOT
TORSDOF 0
REMARK  Name = ../refined-set-2016/3slz/3slz_pocket.pdb
REMARK  253 active torsions:
REMARK  status: ('A' for Active; 'I' for Inactive)
REMARK    1  A    between atoms: _2  and  _3
REMARK    2  A    between atoms: _9  and  _10
REMARK    3  A    between atoms: _15  and  _17
REMARK    4  A    between atoms: _17  and  _18
REMARK    5  A    between atoms: _17  and  _20
REMARK    6  A    between atoms: _20  and  _21
REMARK    7  A    between atoms: _24  and  _26
REMARK    8  A    between atoms: _26  and  _27
REMARK    9  A    between atoms: _26  and  _29
REMARK   10  A    between atoms: _32  and  _34
REMARK   11  A    between atoms: _34  and  _35
REMARK   12  A    between atoms: _34  and  _37
REMARK   13  A    between atoms: _37  and  _38
REMARK   14  A    between atoms: _41  and  _43
REMARK   15  A    between atoms: _43  and  _44
REMARK   16  A    between atoms: _43  and  _46
REMARK   17  A    between atoms: _46  and  _47
REMARK   18  A    between atoms: _50  and  _52
REMARK   19  A    between atoms: _52  and  _53
REMARK   20  A    between atoms: _55  and  _57
REMARK   21  A    between atoms: _57  and  _58
REMARK   22  A    between atoms: _61  and  _63
REMARK   23  A    between atoms: _63  and  _64
REMARK   24  A    between atoms: _63  and  _66
REMARK   25  A    between atoms: _66  and  _67
REMARK   26  A    between atoms: _67  and  _68
REMARK   27  A    between atoms: _73  and  _75
REMARK   28  A    between atoms: _75  and  _76
REMARK   29  A    between atoms: _75  and  _78
REMARK   30  A    between atoms: _78  and  _79
REMARK   31  A    between atoms: _84  and  _86
REMARK   32  A    between atoms: _86  and  _87
REMARK   33  A    between atoms: _86  and  _89
REMARK   34  A    between atoms: _89  and  _90
REMARK   35  A    between atoms: _92  and  _94
REMARK   36  A    between atoms: _94  and  _95
REMARK   37  A    between atoms: _94  and  _97
REMARK   38  A    between atoms: _100  and  _102
REMARK   39  A    between atoms: _102  and  _103
REMARK   40  A    between atoms: _102  and  _105
REMARK   41  A    between atoms: _105  and  _106
REMARK   42  A    between atoms: _108  and  _110
REMARK   43  A    between atoms: _110  and  _111
REMARK   44  A    between atoms: _114  and  _116
REMARK   45  A    between atoms: _116  and  _117
REMARK   46  A    between atoms: _116  and  _119
REMARK   47  A    between atoms: _119  and  _120
REMARK   48  A    between atoms: _130  and  _132
REMARK   49  A    between atoms: _132  and  _133
REMARK   50  A    between atoms: _132  and  _135
REMARK   51  A    between atoms: _138  and  _140
REMARK   52  A    between atoms: _140  and  _141
REMARK   53  A    between atoms: _140  and  _143
REMARK   54  A    between atoms: _143  and  _144
REMARK   55  A    between atoms: _144  and  _145
REMARK   56  A    between atoms: _150  and  _152
REMARK   57  A    between atoms: _152  and  _153
REMARK   58  A    between atoms: _155  and  _157
REMARK   59  A    between atoms: _157  and  _158
REMARK   60  A    between atoms: _161  and  _163
REMARK   61  A    between atoms: _163  and  _164
REMARK   62  A    between atoms: _163  and  _166
REMARK   63  A    between atoms: _166  and  _167
REMARK   64  A    between atoms: _170  and  _172
REMARK   65  A    between atoms: _172  and  _173
REMARK   66  A    between atoms: _175  and  _177
REMARK   67  A    between atoms: _177  and  _178
REMARK   68  A    between atoms: _180  and  _182
REMARK   69  A    between atoms: _182  and  _183
REMARK   70  A    between atoms: _182  and  _185
REMARK   71  A    between atoms: _185  and  _186
REMARK   72  A    between atoms: _186  and  _187
REMARK   73  A    between atoms: _187  and  _188
REMARK   74  A    between atoms: _188  and  _189
REMARK   75  A    between atoms: _193  and  _195
REMARK   76  A    between atoms: _195  and  _196
REMARK   77  A    between atoms: _195  and  _198
REMARK   78  A    between atoms: _198  and  _199
REMARK   79  A    between atoms: _204  and  _205
REMARK   80  A    between atoms: _207  and  _209
REMARK   81  A    between atoms: _209  and  _210
REMARK   82  A    between atoms: _209  and  _212
REMARK   83  A    between atoms: _212  and  _213
REMARK   84  A    between atoms: _223  and  _225
REMARK   85  A    between atoms: _225  and  _226
REMARK   86  A    between atoms: _225  and  _228
REMARK   87  A    between atoms: _228  and  _229
REMARK   88  A    between atoms: _232  and  _234
REMARK   89  A    between atoms: _234  and  _235
REMARK   90  A    between atoms: _234  and  _237
REMARK   91  A    between atoms: _240  and  _242
REMARK   92  A    between atoms: _242  and  _243
REMARK   93  A    between atoms: _242  and  _245
REMARK   94  A    between atoms: _245  and  _246
REMARK   95  A    between atoms: _249  and  _251
REMARK   96  A    between atoms: _251  and  _252
REMARK   97  A    between atoms: _251  and  _254
REMARK   98  A    between atoms: _257  and  _258
REMARK   99  A    between atoms: _263  and  _265
REMARK  100  A    between atoms: _265  and  _266
REMARK  101  A    between atoms: _265  and  _268
REMARK  102  A    between atoms: _268  and  _269
REMARK  103  A    between atoms: _274  and  _275
REMARK  104  A    between atoms: _278  and  _279
REMARK  105  A    between atoms: _284  and  _286
REMARK  106  A    between atoms: _286  and  _287
REMARK  107  A    between atoms: _286  and  _289
REMARK  108  A    between atoms: _289  and  _290
REMARK  109  A    between atoms: _293  and  _295
REMARK  110  A    between atoms: _295  and  _296
REMARK  111  A    between atoms: _295  and  _298
REMARK  112  A    between atoms: _298  and  _299
REMARK  113  A    between atoms: _302  and  _304
REMARK  114  A    between atoms: _304  and  _305
REMARK  115  A    between atoms: _307  and  _309
REMARK  116  A    between atoms: _309  and  _310
REMARK  117  A    between atoms: _309  and  _312
REMARK  118  A    between atoms: _312  and  _313
REMARK  119  A    between atoms: _313  and  _314
REMARK  120  A    between atoms: _314  and  _315
REMARK  121  A    between atoms: _325  and  _326
REMARK  122  A    between atoms: _331  and  _333
REMARK  123  A    between atoms: _333  and  _334
REMARK  124  A    between atoms: _333  and  _336
REMARK  125  A    between atoms: _336  and  _337
REMARK  126  A    between atoms: _340  and  _342
REMARK  127  A    between atoms: _342  and  _343
REMARK  128  A    between atoms: _342  and  _345
REMARK  129  A    between atoms: _348  and  _350
REMARK  130  A    between atoms: _350  and  _351
REMARK  131  A    between atoms: _350  and  _353
REMARK  132  A    between atoms: _353  and  _354
REMARK  133  A    between atoms: _357  and  _359
REMARK  134  A    between atoms: _359  and  _360
REMARK  135  A    between atoms: _359  and  _362
REMARK  136  A    between atoms: _362  and  _363
REMARK  137  A    between atoms: _366  and  _368
REMARK  138  A    between atoms: _368  and  _369
REMARK  139  A    between atoms: _371  and  _373
REMARK  140  A    between atoms: _373  and  _374
REMARK  141  A    between atoms: _377  and  _379
REMARK  142  A    between atoms: _379  and  _380
REMARK  143  A    between atoms: _379  and  _382
REMARK  144  A    between atoms: _382  and  _383
REMARK  145  A    between atoms: _383  and  _384
REMARK  146  A    between atoms: _389  and  _391
REMARK  147  A    between atoms: _391  and  _392
REMARK  148  A    between atoms: _391  and  _394
REMARK  149  A    between atoms: _394  and  _395
REMARK  150  A    between atoms: _400  and  _402
REMARK  151  A    between atoms: _402  and  _403
REMARK  152  A    between atoms: _402  and  _405
REMARK  153  A    between atoms: _405  and  _406
REMARK  154  A    between atoms: _408  and  _410
REMARK  155  A    between atoms: _410  and  _411
REMARK  156  A    between atoms: _410  and  _413
REMARK  157  A    between atoms: _416  and  _418
REMARK  158  A    between atoms: _418  and  _419
REMARK  159  A    between atoms: _418  and  _421
REMARK  160  A    between atoms: _421  and  _422
REMARK  161  A    between atoms: _424  and  _426
REMARK  162  A    between atoms: _426  and  _427
REMARK  163  A    between atoms: _430  and  _432
REMARK  164  A    between atoms: _432  and  _433
REMARK  165  A    between atoms: _432  and  _435
REMARK  166  A    between atoms: _435  and  _436
REMARK  167  A    between atoms: _446  and  _448
REMARK  168  A    between atoms: _448  and  _449
REMARK  169  A    between atoms: _448  and  _451
REMARK  170  A    between atoms: _454  and  _456
REMARK  171  A    between atoms: _456  and  _457
REMARK  172  A    between atoms: _456  and  _459
REMARK  173  A    between atoms: _459  and  _460
REMARK  174  A    between atoms: _460  and  _461
REMARK  175  A    between atoms: _466  and  _468
REMARK  176  A    between atoms: _468  and  _469
REMARK  177  A    between atoms: _471  and  _473
REMARK  178  A    between atoms: _473  and  _474
REMARK  179  A    between atoms: _477  and  _479
REMARK  180  A    between atoms: _479  and  _480
REMARK  181  A    between atoms: _479  and  _482
REMARK  182  A    between atoms: _482  and  _483
REMARK  183  A    between atoms: _486  and  _488
REMARK  184  A    between atoms: _488  and  _489
REMARK  185  A    between atoms: _491  and  _493
REMARK  186  A    between atoms: _493  and  _494
REMARK  187  A    between atoms: _496  and  _498
REMARK  188  A    between atoms: _498  and  _499
REMARK  189  A    between atoms: _498  and  _501
REMARK  190  A    between atoms: _501  and  _502
REMARK  191  A    between atoms: _502  and  _503
REMARK  192  A    between atoms: _503  and  _504
REMARK  193  A    between atoms: _504  and  _505
REMARK  194  A    between atoms: _509  and  _511
REMARK  195  A    between atoms: _511  and  _512
REMARK  196  A    between atoms: _511  and  _514
REMARK  197  A    between atoms: _514  and  _515
REMARK  198  A    between atoms: _515  and  _516
REMARK  199  A    between atoms: _516  and  _517
REMARK  200  A    between atoms: _526  and  _528
REMARK  201  A    between atoms: _528  and  _529
REMARK  202  A    between atoms: _528  and  _531
REMARK  203  A    between atoms: _531  and  _532
REMARK  204  A    between atoms: _537  and  _538
REMARK  205  A    between atoms: _540  and  _542
REMARK  206  A    between atoms: _542  and  _543
REMARK  207  A    between atoms: _542  and  _545
REMARK  208  A    between atoms: _545  and  _546
REMARK  209  A    between atoms: _556  and  _558
REMARK  210  A    between atoms: _558  and  _559
REMARK  211  A    between atoms: _558  and  _561
REMARK  212  A    between atoms: _561  and  _562
REMARK  213  A    between atoms: _564  and  _566
REMARK  214  A    between atoms: _566  and  _567
REMARK  215  A    between atoms: _566  and  _569
REMARK  216  A    between atoms: _569  and  _570
REMARK  217  A    between atoms: _573  and  _575
REMARK  218  A    between atoms: _575  and  _576
REMARK  219  A    between atoms: _575  and  _578
REMARK  220  A    between atoms: _581  and  _583
REMARK  221  A    between atoms: _583  and  _584
REMARK  222  A    between atoms: _583  and  _586
REMARK  223  A    between atoms: _586  and  _587
REMARK  224  A    between atoms: _590  and  _592
REMARK  225  A    between atoms: _592  and  _593
REMARK  226  A    between atoms: _592  and  _595
REMARK  227  A    between atoms: _598  and  _599
REMARK  228  A    between atoms: _604  and  _606
REMARK  229  A    between atoms: _606  and  _607
REMARK  230  A    between atoms: _606  and  _609
REMARK  231  A    between atoms: _609  and  _610
REMARK  232  A    between atoms: _615  and  _616
REMARK  233  A    between atoms: _619  and  _620
REMARK  234  A    between atoms: _625  and  _627
REMARK  235  A    between atoms: _627  and  _628
REMARK  236  A    between atoms: _627  and  _630
REMARK  237  A    between atoms: _630  and  _631
REMARK  238  A    between atoms: _634  and  _636
REMARK  239  A    between atoms: _636  and  _637
REMARK  240  A    between atoms: _636  and  _639
REMARK  241  A    between atoms: _639  and  _640
REMARK  242  A    between atoms: _643  and  _645
REMARK  243  A    between atoms: _645  and  _646
REMARK  244  A    between atoms: _648  and  _650
REMARK  245  A    between atoms: _650  and  _651
REMARK  246  A    between atoms: _650  and  _653
REMARK  247  A    between atoms: _653  and  _654
REMARK  248  A    between atoms: _654  and  _655
REMARK  249  A    between atoms: _655  and  _656
REMARK  250  A    between atoms: _665  and  _667
REMARK  251  A    between atoms: _667  and  _668
REMARK  252  A    between atoms: _667  and  _670
REMARK  253  A    between atoms: _670  and  _671
REMARK                            x       y       z     vdW  Elec       q    Type
REMARK                         _______ _______ _______ _____ _____    ______ ____
ROOT
ATOM      1  O   HOH     1       2.467   0.863  12.792  0.00  0.00    +0.000 OA
ENDROOT
TORSDOF 0
REMARK  Name = ../refined-set-2016/3slz/3slz_pocket.pdb
REMARK  253 active torsions:
REMARK  status: ('A' for Active; 'I' for Inactive)
REMARK    1  A    between atoms: _2  and  _3
REMARK    2  A    between atoms: _9  and  _10
REMARK    3  A    between atoms: _15  and  _17
REMARK    4  A    between atoms: _17  and  _18
REMARK    5  A    between atoms: _17  and  _20
REMARK    6  A    between atoms: _20  and  _21
REMARK    7  A    between atoms: _24  and  _26
REMARK    8  A    between atoms: _26  and  _27
REMARK    9  A    between atoms: _26  and  _29
REMARK   10  A    between atoms: _32  and  _34
REMARK   11  A    between atoms: _34  and  _35
REMARK   12  A    between atoms: _34  and  _37
REMARK   13  A    between atoms: _37  and  _38
REMARK   14  A    between atoms: _41  and  _43
REMARK   15  A    between atoms: _43  and  _44
REMARK   16  A    between atoms: _43  and  _46
REMARK   17  A    between atoms: _46  and  _47
REMARK   18  A    between atoms: _50  and  _52
REMARK   19  A    between atoms: _52  and  _53
REMARK   20  A    between atoms: _55  and  _57
REMARK   21  A    between atoms: _57  and  _58
REMARK   22  A    between atoms: _61  and  _63
REMARK   23  A    between atoms: _63  and  _64
REMARK   24  A    between atoms: _63  and  _66
REMARK   25  A    between atoms: _66  and  _67
REMARK   26  A    between atoms: _67  and  _68
REMARK   27  A    between atoms: _73  and  _75
REMARK   28  A    between atoms: _75  and  _76
REMARK   29  A    between atoms: _75  and  _78
REMARK   30  A    between atoms: _78  and  _79
REMARK   31  A    between atoms: _84  and  _86
REMARK   32  A    between atoms: _86  and  _87
REMARK   33  A    between atoms: _86  and  _89
REMARK   34  A    between atoms: _89  and  _90
REMARK   35  A    between atoms: _92  and  _94
REMARK   36  A    between atoms: _94  and  _95
REMARK   37  A    between atoms: _94  and  _97
REMARK   38  A    between atoms: _100  and  _102
REMARK   39  A    between atoms: _102  and  _103
REMARK   40  A    between atoms: _102  and  _105
REMARK   41  A    between atoms: _105  and  _106
REMARK   42  A    between atoms: _108  and  _110
REMARK   43  A    between atoms: _110  and  _111
REMARK   44  A    between atoms: _114  and  _116
REMARK   45  A    between atoms: _116  and  _117
REMARK   46  A    between atoms: _116  and  _119
REMARK   47  A    between atoms: _119  and  _120
REMARK   48  A    between atoms: _130  and  _132
REMARK   49  A    between atoms: _132  and  _133
REMARK   50  A    between atoms: _132  and  _135
REMARK   51  A    between atoms: _138  and  _140
REMARK   52  A    between atoms: _140  and  _141
REMARK   53  A    between atoms: _140  and  _143
REMARK   54  A    between atoms: _143  and  _144
REMARK   55  A    between atoms: _144  and  _145
REMARK   56  A    between atoms: _150  and  _152
REMARK   57  A    between atoms: _152  and  _153
REMARK   58  A    between atoms: _155  and  _157
REMARK   59  A    between atoms: _157  and  _158
REMARK   60  A    between atoms: _161  and  _163
REMARK   61  A    between atoms: _163  and  _164
REMARK   62  A    between atoms: _163  and  _166
REMARK   63  A    between atoms: _166  and  _167
REMARK   64  A    between atoms: _170  and  _172
REMARK   65  A    between atoms: _172  and  _173
REMARK   66  A    between atoms: _175  and  _177
REMARK   67  A    between atoms: _177  and  _178
REMARK   68  A    between atoms: _180  and  _182
REMARK   69  A    between atoms: _182  and  _183
REMARK   70  A    between atoms: _182  and  _185
REMARK   71  A    between atoms: _185  and  _186
REMARK   72  A    between atoms: _186  and  _187
REMARK   73  A    between atoms: _187  and  _188
REMARK   74  A    between atoms: _188  and  _189
REMARK   75  A    between atoms: _193  and  _195
REMARK   76  A    between atoms: _195  and  _196
REMARK   77  A    between atoms: _195  and  _198
REMARK   78  A    between atoms: _198  and  _199
REMARK   79  A    between atoms: _204  and  _205
REMARK   80  A    between atoms: _207  and  _209
REMARK   81  A    between atoms: _209  and  _210
REMARK   82  A    between atoms: _209  and  _212
REMARK   83  A    between atoms: _212  and  _213
REMARK   84  A    between atoms: _223  and  _225
REMARK   85  A    between atoms: _225  and  _226
REMARK   86  A    between atoms: _225  and  _228
REMARK   87  A    between atoms: _228  and  _229
REMARK   88  A    between atoms: _232  and  _234
REMARK   89  A    between atoms: _234  and  _235
REMARK   90  A    between atoms: _234  and  _237
REMARK   91  A    between atoms: _240  and  _242
REMARK   92  A    between atoms: _242  and  _243
REMARK   93  A    between atoms: _242  and  _245
REMARK   94  A    between atoms: _245  and  _246
REMARK   95  A    between atoms: _249  and  _251
REMARK   96  A    between atoms: _251  and  _252
REMARK   97  A    between atoms: _251  and  _254
REMARK   98  A    between atoms: _257  and  _258
REMARK   99  A    between atoms: _263  and  _265
REMARK  100  A    between atoms: _265  and  _266
REMARK  101  A    between atoms: _265  and  _268
REMARK  102  A    between atoms: _268  and  _269
REMARK  103  A    between atoms: _274  and  _275
REMARK  104  A    between atoms: _278  and  _279
REMARK  105  A    between atoms: _284  and  _286
REMARK  106  A    between atoms: _286  and  _287
REMARK  107  A    between atoms: _286  and  _289
REMARK  108  A    between atoms: _289  and  _290
REMARK  109  A    between atoms: _293  and  _295
REMARK  110  A    between atoms: _295  and  _296
REMARK  111  A    between atoms: _295  and  _298
REMARK  112  A    between atoms: _298  and  _299
REMARK  113  A    between atoms: _302  and  _304
REMARK  114  A    between atoms: _304  and  _305
REMARK  115  A    between atoms: _307  and  _309
REMARK  116  A    between atoms: _309  and  _310
REMARK  117  A    between atoms: _309  and  _312
REMARK  118  A    between atoms: _312  and  _313
REMARK  119  A    between atoms: _313  and  _314
REMARK  120  A    between atoms: _314  and  _315
REMARK  121  A    between atoms: _325  and  _326
REMARK  122  A    between atoms: _331  and  _333
REMARK  123  A    between atoms: _333  and  _334
REMARK  124  A    between atoms: _333  and  _336
REMARK  125  A    between atoms: _336  and  _337
REMARK  126  A    between atoms: _340  and  _342
REMARK  127  A    between atoms: _342  and  _343
REMARK  128  A    between atoms: _342  and  _345
REMARK  129  A    between atoms: _348  and  _350
REMARK  130  A    between atoms: _350  and  _351
REMARK  131  A    between atoms: _350  and  _353
REMARK  132  A    between atoms: _353  and  _354
REMARK  133  A    between atoms: _357  and  _359
REMARK  134  A    between atoms: _359  and  _360
REMARK  135  A    between atoms: _359  and  _362
REMARK  136  A    between atoms: _362  and  _363
REMARK  137  A    between atoms: _366  and  _368
REMARK  138  A    between atoms: _368  and  _369
REMARK  139  A    between atoms: _371  and  _373
REMARK  140  A    between atoms: _373  and  _374
REMARK  141  A    between atoms: _377  and  _379
REMARK  142  A    between atoms: _379  and  _380
REMARK  143  A    between atoms: _379  and  _382
REMARK  144  A    between atoms: _382  and  _383
REMARK  145  A    between atoms: _383  and  _384
REMARK  146  A    between atoms: _389  and  _391
REMARK  147  A    between atoms: _391  and  _392
REMARK  148  A    between atoms: _391  and  _394
REMARK  149  A    between atoms: _394  and  _395
REMARK  150  A    between atoms: _400  and  _402
REMARK  151  A    between atoms: _402  and  _403
REMARK  152  A    between atoms: _402  and  _405
REMARK  153  A    between atoms: _405  and  _406
REMARK  154  A    between atoms: _408  and  _410
REMARK  155  A    between atoms: _410  and  _411
REMARK  156  A    between atoms: _410  and  _413
REMARK  157  A    between atoms: _416  and  _418
REMARK  158  A    between atoms: _418  and  _419
REMARK  159  A    between atoms: _418  and  _421
REMARK  160  A    between atoms: _421  and  _422
REMARK  161  A    between atoms: _424  and  _426
REMARK  162  A    between atoms: _426  and  _427
REMARK  163  A    between atoms: _430  and  _432
REMARK  164  A    between atoms: _432  and  _433
REMARK  165  A    between atoms: _432  and  _435
REMARK  166  A    between atoms: _435  and  _436
REMARK  167  A    between atoms: _446  and  _448
REMARK  168  A    between atoms: _448  and  _449
REMARK  169  A    between atoms: _448  and  _451
REMARK  170  A    between atoms: _454  and  _456
REMARK  171  A    between atoms: _456  and  _457
REMARK  172  A    between atoms: _456  and  _459
REMARK  173  A    between atoms: _459  and  _460
REMARK  174  A    between atoms: _460  and  _461
REMARK  175  A    between atoms: _466  and  _468
REMARK  176  A    between atoms: _468  and  _469
REMARK  177  A    between atoms: _471  and  _473
REMARK  178  A    between atoms: _473  and  _474
REMARK  179  A    between atoms: _477  and  _479
REMARK  180  A    between atoms: _479  and  _480
REMARK  181  A    between atoms: _479  and  _482
REMARK  182  A    between atoms: _482  and  _483
REMARK  183  A    between atoms: _486  and  _488
REMARK  184  A    between atoms: _488  and  _489
REMARK  185  A    between atoms: _491  and  _493
REMARK  186  A    between atoms: _493  and  _494
REMARK  187  A    between atoms: _496  and  _498
REMARK  188  A    between atoms: _498  and  _499
REMARK  189  A    between atoms: _498  and  _501
REMARK  190  A    between atoms: _501  and  _502
REMARK  191  A    between atoms: _502  and  _503
REMARK  192  A    between atoms: _503  and  _504
REMARK  193  A    between atoms: _504  and  _505
REMARK  194  A    between atoms: _509  and  _511
REMARK  195  A    between atoms: _511  and  _512
REMARK  196  A    between atoms: _511  and  _514
REMARK  197  A    between atoms: _514  and  _515
REMARK  198  A    between atoms: _515  and  _516
REMARK  199  A    between atoms: _516  and  _517
REMARK  200  A    between atoms: _526  and  _528
REMARK  201  A    between atoms: _528  and  _529
REMARK  202  A    between atoms: _528  and  _531
REMARK  203  A    between atoms: _531  and  _532
REMARK  204  A    between atoms: _537  and  _538
REMARK  205  A    between atoms: _540  and  _542
REMARK  206  A    between atoms: _542  and  _543
REMARK  207  A    between atoms: _542  and  _545
REMARK  208  A    between atoms: _545  and  _546
REMARK  209  A    between atoms: _556  and  _558
REMARK  210  A    between atoms: _558  and  _559
REMARK  211  A    between atoms: _558  and  _561
REMARK  212  A    between atoms: _561  and  _562
REMARK  213  A    between atoms: _564  and  _566
REMARK  214  A    between atoms: _566  and  _567
REMARK  215  A    between atoms: _566  and  _569
REMARK  216  A    between atoms: _569  and  _570
REMARK  217  A    between atoms: _573  and  _575
REMARK  218  A    between atoms: _575  and  _576
REMARK  219  A    between atoms: _575  and  _578
REMARK  220  A    between atoms: _581  and  _583
REMARK  221  A    between atoms: _583  and  _584
REMARK  222  A    between atoms: _583  and  _586
REMARK  223  A    between atoms: _586  and  _587
REMARK  224  A    between atoms: _590  and  _592
REMARK  225  A    between atoms: _592  and  _593
REMARK  226  A    between atoms: _592  and  _595
REMARK  227  A    between atoms: _598  and  _599
REMARK  228  A    between atoms: _604  and  _606
REMARK  229  A    between atoms: _606  and  _607
REMARK  230  A    between atoms: _606  and  _609
REMARK  231  A    between atoms: _609  and  _610
REMARK  232  A    between atoms: _615  and  _616
REMARK  233  A    between atoms: _619  and  _620
REMARK  234  A    between atoms: _625  and  _627
REMARK  235  A    between atoms: _627  and  _628
REMARK  236  A    between atoms: _627  and  _630
REMARK  237  A    between atoms: _630  and  _631
REMARK  238  A    between atoms: _634  and  _636
REMARK  239  A    between atoms: _636  and  _637
REMARK  240  A    between atoms: _636  and  _639
REMARK  241  A    between atoms: _639  and  _640
REMARK  242  A    between atoms: _643  and  _645
REMARK  243  A    between atoms: _645  and  _646
REMARK  244  A    between atoms: _648  and  _650
REMARK  245  A    between atoms: _650  and  _651
REMARK  246  A    between atoms: _650  and  _653
REMARK  247  A    between atoms: _653  and  _654
REMARK  248  A    between atoms: _654  and  _655
REMARK  249  A    between atoms: _655  and  _656
REMARK  250  A    between atoms: _665  and  _667
REMARK  251  A    between atoms: _667  and  _668
REMARK  252  A    between atoms: _667  and  _670
REMARK  253  A    between atoms: _670  and  _671
REMARK                            x       y       z     vdW  Elec       q    Type
REMARK                         _______ _______ _______ _____ _____    ______ ____
ROOT
ATOM      1  O   HOH     1       5.128   7.603  16.765  0.00  0.00    +0.000 OA
ENDROOT
TORSDOF 0
REMARK  Name = ../refined-set-2016/3slz/3slz_pocket.pdb
REMARK  253 active torsions:
REMARK  status: ('A' for Active; 'I' for Inactive)
REMARK    1  A    between atoms: _2  and  _3
REMARK    2  A    between atoms: _9  and  _10
REMARK    3  A    between atoms: _15  and  _17
REMARK    4  A    between atoms: _17  and  _18
REMARK    5  A    between atoms: _17  and  _20
REMARK    6  A    between atoms: _20  and  _21
REMARK    7  A    between atoms: _24  and  _26
REMARK    8  A    between atoms: _26  and  _27
REMARK    9  A    between atoms: _26  and  _29
REMARK   10  A    between atoms: _32  and  _34
REMARK   11  A    between atoms: _34  and  _35
REMARK   12  A    between atoms: _34  and  _37
REMARK   13  A    between atoms: _37  and  _38
REMARK   14  A    between atoms: _41  and  _43
REMARK   15  A    between atoms: _43  and  _44
REMARK   16  A    between atoms: _43  and  _46
REMARK   17  A    between atoms: _46  and  _47
REMARK   18  A    between atoms: _50  and  _52
REMARK   19  A    between atoms: _52  and  _53
REMARK   20  A    between atoms: _55  and  _57
REMARK   21  A    between atoms: _57  and  _58
REMARK   22  A    between atoms: _61  and  _63
REMARK   23  A    between atoms: _63  and  _64
REMARK   24  A    between atoms: _63  and  _66
REMARK   25  A    between atoms: _66  and  _67
REMARK   26  A    between atoms: _67  and  _68
REMARK   27  A    between atoms: _73  and  _75
REMARK   28  A    between atoms: _75  and  _76
REMARK   29  A    between atoms: _75  and  _78
REMARK   30  A    between atoms: _78  and  _79
REMARK   31  A    between atoms: _84  and  _86
REMARK   32  A    between atoms: _86  and  _87
REMARK   33  A    between atoms: _86  and  _89
REMARK   34  A    between atoms: _89  and  _90
REMARK   35  A    between atoms: _92  and  _94
REMARK   36  A    between atoms: _94  and  _95
REMARK   37  A    between atoms: _94  and  _97
REMARK   38  A    between atoms: _100  and  _102
REMARK   39  A    between atoms: _102  and  _103
REMARK   40  A    between atoms: _102  and  _105
REMARK   41  A    between atoms: _105  and  _106
REMARK   42  A    between atoms: _108  and  _110
REMARK   43  A    between atoms: _110  and  _111
REMARK   44  A    between atoms: _114  and  _116
REMARK   45  A    between atoms: _116  and  _117
REMARK   46  A    between atoms: _116  and  _119
REMARK   47  A    between atoms: _119  and  _120
REMARK   48  A    between atoms: _130  and  _132
REMARK   49  A    between atoms: _132  and  _133
REMARK   50  A    between atoms: _132  and  _135
REMARK   51  A    between atoms: _138  and  _140
REMARK   52  A    between atoms: _140  and  _141
REMARK   53  A    between atoms: _140  and  _143
REMARK   54  A    between atoms: _143  and  _144
REMARK   55  A    between atoms: _144  and  _145
REMARK   56  A    between atoms: _150  and  _152
REMARK   57  A    between atoms: _152  and  _153
REMARK   58  A    between atoms: _155  and  _157
REMARK   59  A    between atoms: _157  and  _158
REMARK   60  A    between atoms: _161  and  _163
REMARK   61  A    between atoms: _163  and  _164
REMARK   62  A    between atoms: _163  and  _166
REMARK   63  A    between atoms: _166  and  _167
REMARK   64  A    between atoms: _170  and  _172
REMARK   65  A    between atoms: _172  and  _173
REMARK   66  A    between atoms: _175  and  _177
REMARK   67  A    between atoms: _177  and  _178
REMARK   68  A    between atoms: _180  and  _182
REMARK   69  A    between atoms: _182  and  _183
REMARK   70  A    between atoms: _182  and  _185
REMARK   71  A    between atoms: _185  and  _186
REMARK   72  A    between atoms: _186  and  _187
REMARK   73  A    between atoms: _187  and  _188
REMARK   74  A    between atoms: _188  and  _189
REMARK   75  A    between atoms: _193  and  _195
REMARK   76  A    between atoms: _195  and  _196
REMARK   77  A    between atoms: _195  and  _198
REMARK   78  A    between atoms: _198  and  _199
REMARK   79  A    between atoms: _204  and  _205
REMARK   80  A    between atoms: _207  and  _209
REMARK   81  A    between atoms: _209  and  _210
REMARK   82  A    between atoms: _209  and  _212
REMARK   83  A    between atoms: _212  and  _213
REMARK   84  A    between atoms: _223  and  _225
REMARK   85  A    between atoms: _225  and  _226
REMARK   86  A    between atoms: _225  and  _228
REMARK   87  A    between atoms: _228  and  _229
REMARK   88  A    between atoms: _232  and  _234
REMARK   89  A    between atoms: _234  and  _235
REMARK   90  A    between atoms: _234  and  _237
REMARK   91  A    between atoms: _240  and  _242
REMARK   92  A    between atoms: _242  and  _243
REMARK   93  A    between atoms: _242  and  _245
REMARK   94  A    between atoms: _245  and  _246
REMARK   95  A    between atoms: _249  and  _251
REMARK   96  A    between atoms: _251  and  _252
REMARK   97  A    between atoms: _251  and  _254
REMARK   98  A    between atoms: _257  and  _258
REMARK   99  A    between atoms: _263  and  _265
REMARK  100  A    between atoms: _265  and  _266
REMARK  101  A    between atoms: _265  and  _268
REMARK  102  A    between atoms: _268  and  _269
REMARK  103  A    between atoms: _274  and  _275
REMARK  104  A    between atoms: _278  and  _279
REMARK  105  A    between atoms: _284  and  _286
REMARK  106  A    between atoms: _286  and  _287
REMARK  107  A    between atoms: _286  and  _289
REMARK  108  A    between atoms: _289  and  _290
REMARK  109  A    between atoms: _293  and  _295
REMARK  110  A    between atoms: _295  and  _296
REMARK  111  A    between atoms: _295  and  _298
REMARK  112  A    between atoms: _298  and  _299
REMARK  113  A    between atoms: _302  and  _304
REMARK  114  A    between atoms: _304  and  _305
REMARK  115  A    between atoms: _307  and  _309
REMARK  116  A    between atoms: _309  and  _310
REMARK  117  A    between atoms: _309  and  _312
REMARK  118  A    between atoms: _312  and  _313
REMARK  119  A    between atoms: _313  and  _314
REMARK  120  A    between atoms: _314  and  _315
REMARK  121  A    between atoms: _325  and  _326
REMARK  122  A    between atoms: _331  and  _333
REMARK  123  A    between atoms: _333  and  _334
REMARK  124  A    between atoms: _333  and  _336
REMARK  125  A    between atoms: _336  and  _337
REMARK  126  A    between atoms: _340  and  _342
REMARK  127  A    between atoms: _342  and  _343
REMARK  128  A    between atoms: _342  and  _345
REMARK  129  A    between atoms: _348  and  _350
REMARK  130  A    between atoms: _350  and  _351
REMARK  131  A    between atoms: _350  and  _353
REMARK  132  A    between atoms: _353  and  _354
REMARK  133  A    between atoms: _357  and  _359
REMARK  134  A    between atoms: _359  and  _360
REMARK  135  A    between atoms: _359  and  _362
REMARK  136  A    between atoms: _362  and  _363
REMARK  137  A    between atoms: _366  and  _368
REMARK  138  A    between atoms: _368  and  _369
REMARK  139  A    between atoms: _371  and  _373
REMARK  140  A    between atoms: _373  and  _374
REMARK  141  A    between atoms: _377  and  _379
REMARK  142  A    between atoms: _379  and  _380
REMARK  143  A    between atoms: _379  and  _382
REMARK  144  A    between atoms: _382  and  _383
REMARK  145  A    between atoms: _383  and  _384
REMARK  146  A    between atoms: _389  and  _391
REMARK  147  A    between atoms: _391  and  _392
REMARK  148  A    between atoms: _391  and  _394
REMARK  149  A    between atoms: _394  and  _395
REMARK  150  A    between atoms: _400  and  _402
REMARK  151  A    between atoms: _402  and  _403
REMARK  152  A    between atoms: _402  and  _405
REMARK  153  A    between atoms: _405  and  _406
REMARK  154  A    between atoms: _408  and  _410
REMARK  155  A    between atoms: _410  and  _411
REMARK  156  A    between atoms: _410  and  _413
REMARK  157  A    between atoms: _416  and  _418
REMARK  158  A    between atoms: _418  and  _419
REMARK  159  A    between atoms: _418  and  _421
REMARK  160  A    between atoms: _421  and  _422
REMARK  161  A    between atoms: _424  and  _426
REMARK  162  A    between atoms: _426  and  _427
REMARK  163  A    between atoms: _430  and  _432
REMARK  164  A    between atoms: _432  and  _433
REMARK  165  A    between atoms: _432  and  _435
REMARK  166  A    between atoms: _435  and  _436
REMARK  167  A    between atoms: _446  and  _448
REMARK  168  A    between atoms: _448  and  _449
REMARK  169  A    between atoms: _448  and  _451
REMARK  170  A    between atoms: _454  and  _456
REMARK  171  A    between atoms: _456  and  _457
REMARK  172  A    between atoms: _456  and  _459
REMARK  173  A    between atoms: _459  and  _460
REMARK  174  A    between atoms: _460  and  _461
REMARK  175  A    between atoms: _466  and  _468
REMARK  176  A    between atoms: _468  and  _469
REMARK  177  A    between atoms: _471  and  _473
REMARK  178  A    between atoms: _473  and  _474
REMARK  179  A    between atoms: _477  and  _479
REMARK  180  A    between atoms: _479  and  _480
REMARK  181  A    between atoms: _479  and  _482
REMARK  182  A    between atoms: _482  and  _483
REMARK  183  A    between atoms: _486  and  _488
REMARK  184  A    between atoms: _488  and  _489
REMARK  185  A    between atoms: _491  and  _493
REMARK  186  A    between atoms: _493  and  _494
REMARK  187  A    between atoms: _496  and  _498
REMARK  188  A    between atoms: _498  and  _499
REMARK  189  A    between atoms: _498  and  _501
REMARK  190  A    between atoms: _501  and  _502
REMARK  191  A    between atoms: _502  and  _503
REMARK  192  A    between atoms: _503  and  _504
REMARK  193  A    between atoms: _504  and  _505
REMARK  194  A    between atoms: _509  and  _511
REMARK  195  A    between atoms: _511  and  _512
REMARK  196  A    between atoms: _511  and  _514
REMARK  197  A    between atoms: _514  and  _515
REMARK  198  A    between atoms: _515  and  _516
REMARK  199  A    between atoms: _516  and  _517
REMARK  200  A    between atoms: _526  and  _528
REMARK  201  A    between atoms: _528  and  _529
REMARK  202  A    between atoms: _528  and  _531
REMARK  203  A    between atoms: _531  and  _532
REMARK  204  A    between atoms: _537  and  _538
REMARK  205  A    between atoms: _540  and  _542
REMARK  206  A    between atoms: _542  and  _543
REMARK  207  A    between atoms: _542  and  _545
REMARK  208  A    between atoms: _545  and  _546
REMARK  209  A    between atoms: _556  and  _558
REMARK  210  A    between atoms: _558  and  _559
REMARK  211  A    between atoms: _558  and  _561
REMARK  212  A    between atoms: _561  and  _562
REMARK  213  A    between atoms: _564  and  _566
REMARK  214  A    between atoms: _566  and  _567
REMARK  215  A    between atoms: _566  and  _569
REMARK  216  A    between atoms: _569  and  _570
REMARK  217  A    between atoms: _573  and  _575
REMARK  218  A    between atoms: _575  and  _576
REMARK  219  A    between atoms: _575  and  _578
REMARK  220  A    between atoms: _581  and  _583
REMARK  221  A    between atoms: _583  and  _584
REMARK  222  A    between atoms: _583  and  _586
REMARK  223  A    between atoms: _586  and  _587
REMARK  224  A    between atoms: _590  and  _592
REMARK  225  A    between atoms: _592  and  _593
REMARK  226  A    between atoms: _592  and  _595
REMARK  227  A    between atoms: _598  and  _599
REMARK  228  A    between atoms: _604  and  _606
REMARK  229  A    between atoms: _606  and  _607
REMARK  230  A    between atoms: _606  and  _609
REMARK  231  A    between atoms: _609  and  _610
REMARK  232  A    between atoms: _615  and  _616
REMARK  233  A    between atoms: _619  and  _620
REMARK  234  A    between atoms: _625  and  _627
REMARK  235  A    between atoms: _627  and  _628
REMARK  236  A    between atoms: _627  and  _630
REMARK  237  A    between atoms: _630  and  _631
REMARK  238  A    between atoms: _634  and  _636
REMARK  239  A    between atoms: _636  and  _637
REMARK  240  A    between atoms: _636  and  _639
REMARK  241  A    between atoms: _639  and  _640
REMARK  242  A    between atoms: _643  and  _645
REMARK  243  A    between atoms: _645  and  _646
REMARK  244  A    between atoms: _648  and  _650
REMARK  245  A    between atoms: _650  and  _651
REMARK  246  A    between atoms: _650  and  _653
REMARK  247  A    between atoms: _653  and  _654
REMARK  248  A    between atoms: _654  and  _655
REMARK  249  A    between atoms: _655  and  _656
REMARK  250  A    between atoms: _665  and  _667
REMARK  251  A    between atoms: _667  and  _668
REMARK  252  A    between atoms: _667  and  _670
REMARK  253  A    between atoms: _670  and  _671
REMARK                            x       y       z     vdW  Elec       q    Type
REMARK                         _______ _______ _______ _____ _____    ______ ____
ROOT
ATOM      1  O   HOH     1      -0.502   3.648  25.881  0.00  0.00    +0.000 OA
ENDROOT
TORSDOF 0
REMARK  Name = ../refined-set-2016/3slz/3slz_pocket.pdb
REMARK  253 active torsions:
REMARK  status: ('A' for Active; 'I' for Inactive)
REMARK    1  A    between atoms: _2  and  _3
REMARK    2  A    between atoms: _9  and  _10
REMARK    3  A    between atoms: _15  and  _17
REMARK    4  A    between atoms: _17  and  _18
REMARK    5  A    between atoms: _17  and  _20
REMARK    6  A    between atoms: _20  and  _21
REMARK    7  A    between atoms: _24  and  _26
REMARK    8  A    between atoms: _26  and  _27
REMARK    9  A    between atoms: _26  and  _29
REMARK   10  A    between atoms: _32  and  _34
REMARK   11  A    between atoms: _34  and  _35
REMARK   12  A    between atoms: _34  and  _37
REMARK   13  A    between atoms: _37  and  _38
REMARK   14  A    between atoms: _41  and  _43
REMARK   15  A    between atoms: _43  and  _44
REMARK   16  A    between atoms: _43  and  _46
REMARK   17  A    between atoms: _46  and  _47
REMARK   18  A    between atoms: _50  and  _52
REMARK   19  A    between atoms: _52  and  _53
REMARK   20  A    between atoms: _55  and  _57
REMARK   21  A    between atoms: _57  and  _58
REMARK   22  A    between atoms: _61  and  _63
REMARK   23  A    between atoms: _63  and  _64
REMARK   24  A    between atoms: _63  and  _66
REMARK   25  A    between atoms: _66  and  _67
REMARK   26  A    between atoms: _67  and  _68
REMARK   27  A    between atoms: _73  and  _75
REMARK   28  A    between atoms: _75  and  _76
REMARK   29  A    between atoms: _75  and  _78
REMARK   30  A    between atoms: _78  and  _79
REMARK   31  A    between atoms: _84  and  _86
REMARK   32  A    between atoms: _86  and  _87
REMARK   33  A    between atoms: _86  and  _89
REMARK   34  A    between atoms: _89  and  _90
REMARK   35  A    between atoms: _92  and  _94
REMARK   36  A    between atoms: _94  and  _95
REMARK   37  A    between atoms: _94  and  _97
REMARK   38  A    between atoms: _100  and  _102
REMARK   39  A    between atoms: _102  and  _103
REMARK   40  A    between atoms: _102  and  _105
REMARK   41  A    between atoms: _105  and  _106
REMARK   42  A    between atoms: _108  and  _110
REMARK   43  A    between atoms: _110  and  _111
REMARK   44  A    between atoms: _114  and  _116
REMARK   45  A    between atoms: _116  and  _117
REMARK   46  A    between atoms: _116  and  _119
REMARK   47  A    between atoms: _119  and  _120
REMARK   48  A    between atoms: _130  and  _132
REMARK   49  A    between atoms: _132  and  _133
REMARK   50  A    between atoms: _132  and  _135
REMARK   51  A    between atoms: _138  and  _140
REMARK   52  A    between atoms: _140  and  _141
REMARK   53  A    between atoms: _140  and  _143
REMARK   54  A    between atoms: _143  and  _144
REMARK   55  A    between atoms: _144  and  _145
REMARK   56  A    between atoms: _150  and  _152
REMARK   57  A    between atoms: _152  and  _153
REMARK   58  A    between atoms: _155  and  _157
REMARK   59  A    between atoms: _157  and  _158
REMARK   60  A    between atoms: _161  and  _163
REMARK   61  A    between atoms: _163  and  _164
REMARK   62  A    between atoms: _163  and  _166
REMARK   63  A    between atoms: _166  and  _167
REMARK   64  A    between atoms: _170  and  _172
REMARK   65  A    between atoms: _172  and  _173
REMARK   66  A    between atoms: _175  and  _177
REMARK   67  A    between atoms: _177  and  _178
REMARK   68  A    between atoms: _180  and  _182
REMARK   69  A    between atoms: _182  and  _183
REMARK   70  A    between atoms: _182  and  _185
REMARK   71  A    between atoms: _185  and  _186
REMARK   72  A    between atoms: _186  and  _187
REMARK   73  A    between atoms: _187  and  _188
REMARK   74  A    between atoms: _188  and  _189
REMARK   75  A    between atoms: _193  and  _195
REMARK   76  A    between atoms: _195  and  _196
REMARK   77  A    between atoms: _195  and  _198
REMARK   78  A    between atoms: _198  and  _199
REMARK   79  A    between atoms: _204  and  _205
REMARK   80  A    between atoms: _207  and  _209
REMARK   81  A    between atoms: _209  and  _210
REMARK   82  A    between atoms: _209  and  _212
REMARK   83  A    between atoms: _212  and  _213
REMARK   84  A    between atoms: _223  and  _225
REMARK   85  A    between atoms: _225  and  _226
REMARK   86  A    between atoms: _225  and  _228
REMARK   87  A    between atoms: _228  and  _229
REMARK   88  A    between atoms: _232  and  _234
REMARK   89  A    between atoms: _234  and  _235
REMARK   90  A    between atoms: _234  and  _237
REMARK   91  A    between atoms: _240  and  _242
REMARK   92  A    between atoms: _242  and  _243
REMARK   93  A    between atoms: _242  and  _245
REMARK   94  A    between atoms: _245  and  _246
REMARK   95  A    between atoms: _249  and  _251
REMARK   96  A    between atoms: _251  and  _252
REMARK   97  A    between atoms: _251  and  _254
REMARK   98  A    between atoms: _257  and  _258
REMARK   99  A    between atoms: _263  and  _265
REMARK  100  A    between atoms: _265  and  _266
REMARK  101  A    between atoms: _265  and  _268
REMARK  102  A    between atoms: _268  and  _269
REMARK  103  A    between atoms: _274  and  _275
REMARK  104  A    between atoms: _278  and  _279
REMARK  105  A    between atoms: _284  and  _286
REMARK  106  A    between atoms: _286  and  _287
REMARK  107  A    between atoms: _286  and  _289
REMARK  108  A    between atoms: _289  and  _290
REMARK  109  A    between atoms: _293  and  _295
REMARK  110  A    between atoms: _295  and  _296
REMARK  111  A    between atoms: _295  and  _298
REMARK  112  A    between atoms: _298  and  _299
REMARK  113  A    between atoms: _302  and  _304
REMARK  114  A    between atoms: _304  and  _305
REMARK  115  A    between atoms: _307  and  _309
REMARK  116  A    between atoms: _309  and  _310
REMARK  117  A    between atoms: _309  and  _312
REMARK  118  A    between atoms: _312  and  _313
REMARK  119  A    between atoms: _313  and  _314
REMARK  120  A    between atoms: _314  and  _315
REMARK  121  A    between atoms: _325  and  _326
REMARK  122  A    between atoms: _331  and  _333
REMARK  123  A    between atoms: _333  and  _334
REMARK  124  A    between atoms: _333  and  _336
REMARK  125  A    between atoms: _336  and  _337
REMARK  126  A    between atoms: _340  and  _342
REMARK  127  A    between atoms: _342  and  _343
REMARK  128  A    between atoms: _342  and  _345
REMARK  129  A    between atoms: _348  and  _350
REMARK  130  A    between atoms: _350  and  _351
REMARK  131  A    between atoms: _350  and  _353
REMARK  132  A    between atoms: _353  and  _354
REMARK  133  A    between atoms: _357  and  _359
REMARK  134  A    between atoms: _359  and  _360
REMARK  135  A    between atoms: _359  and  _362
REMARK  136  A    between atoms: _362  and  _363
REMARK  137  A    between atoms: _366  and  _368
REMARK  138  A    between atoms: _368  and  _369
REMARK  139  A    between atoms: _371  and  _373
REMARK  140  A    between atoms: _373  and  _374
REMARK  141  A    between atoms: _377  and  _379
REMARK  142  A    between atoms: _379  and  _380
REMARK  143  A    between atoms: _379  and  _382
REMARK  144  A    between atoms: _382  and  _383
REMARK  145  A    between atoms: _383  and  _384
REMARK  146  A    between atoms: _389  and  _391
REMARK  147  A    between atoms: _391  and  _392
REMARK  148  A    between atoms: _391  and  _394
REMARK  149  A    between atoms: _394  and  _395
REMARK  150  A    between atoms: _400  and  _402
REMARK  151  A    between atoms: _402  and  _403
REMARK  152  A    between atoms: _402  and  _405
REMARK  153  A    between atoms: _405  and  _406
REMARK  154  A    between atoms: _408  and  _410
REMARK  155  A    between atoms: _410  and  _411
REMARK  156  A    between atoms: _410  and  _413
REMARK  157  A    between atoms: _416  and  _418
REMARK  158  A    between atoms: _418  and  _419
REMARK  159  A    between atoms: _418  and  _421
REMARK  160  A    between atoms: _421  and  _422
REMARK  161  A    between atoms: _424  and  _426
REMARK  162  A    between atoms: _426  and  _427
REMARK  163  A    between atoms: _430  and  _432
REMARK  164  A    between atoms: _432  and  _433
REMARK  165  A    between atoms: _432  and  _435
REMARK  166  A    between atoms: _435  and  _436
REMARK  167  A    between atoms: _446  and  _448
REMARK  168  A    between atoms: _448  and  _449
REMARK  169  A    between atoms: _448  and  _451
REMARK  170  A    between atoms: _454  and  _456
REMARK  171  A    between atoms: _456  and  _457
REMARK  172  A    between atoms: _456  and  _459
REMARK  173  A    between atoms: _459  and  _460
REMARK  174  A    between atoms: _460  and  _461
REMARK  175  A    between atoms: _466  and  _468
REMARK  176  A    between atoms: _468  and  _469
REMARK  177  A    between atoms: _471  and  _473
REMARK  178  A    between atoms: _473  and  _474
REMARK  179  A    between atoms: _477  and  _479
REMARK  180  A    between atoms: _479  and  _480
REMARK  181  A    between atoms: _479  and  _482
REMARK  182  A    between atoms: _482  and  _483
REMARK  183  A    between atoms: _486  and  _488
REMARK  184  A    between atoms: _488  and  _489
REMARK  185  A    between atoms: _491  and  _493
REMARK  186  A    between atoms: _493  and  _494
REMARK  187  A    between atoms: _496  and  _498
REMARK  188  A    between atoms: _498  and  _499
REMARK  189  A    between atoms: _498  and  _501
REMARK  190  A    between atoms: _501  and  _502
REMARK  191  A    between atoms: _502  and  _503
REMARK  192  A    between atoms: _503  and  _504
REMARK  193  A    between atoms: _504  and  _505
REMARK  194  A    between atoms: _509  and  _511
REMARK  195  A    between atoms: _511  and  _512
REMARK  196  A    between atoms: _511  and  _514
REMARK  197  A    between atoms: _514  and  _515
REMARK  198  A    between atoms: _515  and  _516
REMARK  199  A    between atoms: _516  and  _517
REMARK  200  A    between atoms: _526  and  _528
REMARK  201  A    between atoms: _528  and  _529
REMARK  202  A    between atoms: _528  and  _531
REMARK  203  A    between atoms: _531  and  _532
REMARK  204  A    between atoms: _537  and  _538
REMARK  205  A    between atoms: _540  and  _542
REMARK  206  A    between atoms: _542  and  _543
REMARK  207  A    between atoms: _542  and  _545
REMARK  208  A    between atoms: _545  and  _546
REMARK  209  A    between atoms: _556  and  _558
REMARK  210  A    between atoms: _558  and  _559
REMARK  211  A    between atoms: _558  and  _561
REMARK  212  A    between atoms: _561  and  _562
REMARK  213  A    between atoms: _564  and  _566
REMARK  214  A    between atoms: _566  and  _567
REMARK  215  A    between atoms: _566  and  _569
REMARK  216  A    between atoms: _569  and  _570
REMARK  217  A    between atoms: _573  and  _575
REMARK  218  A    between atoms: _575  and  _576
REMARK  219  A    between atoms: _575  and  _578
REMARK  220  A    between atoms: _581  and  _583
REMARK  221  A    between atoms: _583  and  _584
REMARK  222  A    between atoms: _583  and  _586
REMARK  223  A    between atoms: _586  and  _587
REMARK  224  A    between atoms: _590  and  _592
REMARK  225  A    between atoms: _592  and  _593
REMARK  226  A    between atoms: _592  and  _595
REMARK  227  A    between atoms: _598  and  _599
REMARK  228  A    between atoms: _604  and  _606
REMARK  229  A    between atoms: _606  and  _607
REMARK  230  A    between atoms: _606  and  _609
REMARK  231  A    between atoms: _609  and  _610
REMARK  232  A    between atoms: _615  and  _616
REMARK  233  A    between atoms: _619  and  _620
REMARK  234  A    between atoms: _625  and  _627
REMARK  235  A    between atoms: _627  and  _628
REMARK  236  A    between atoms: _627  and  _630
REMARK  237  A    between atoms: _630  and  _631
REMARK  238  A    between atoms: _634  and  _636
REMARK  239  A    between atoms: _636  and  _637
REMARK  240  A    between atoms: _636  and  _639
REMARK  241  A    between atoms: _639  and  _640
REMARK  242  A    between atoms: _643  and  _645
REMARK  243  A    between atoms: _645  and  _646
REMARK  244  A    between atoms: _648  and  _650
REMARK  245  A    between atoms: _650  and  _651
REMARK  246  A    between atoms: _650  and  _653
REMARK  247  A    between atoms: _653  and  _654
REMARK  248  A    between atoms: _654  and  _655
REMARK  249  A    between atoms: _655  and  _656
REMARK  250  A    between atoms: _665  and  _667
REMARK  251  A    between atoms: _667  and  _668
REMARK  252  A    between atoms: _667  and  _670
REMARK  253  A    between atoms: _670  and  _671
REMARK                            x       y       z     vdW  Elec       q    Type
REMARK                         _______ _______ _______ _____ _____    ______ ____
ROOT
ATOM      1  O   HOH     1       4.331   2.241  19.314  0.00  0.00    +0.000 OA
ENDROOT
TORSDOF 0
REMARK  Name = ../refined-set-2016/3slz/3slz_pocket.pdb
REMARK  253 active torsions:
REMARK  status: ('A' for Active; 'I' for Inactive)
REMARK    1  A    between atoms: _2  and  _3
REMARK    2  A    between atoms: _9  and  _10
REMARK    3  A    between atoms: _15  and  _17
REMARK    4  A    between atoms: _17  and  _18
REMARK    5  A    between atoms: _17  and  _20
REMARK    6  A    between atoms: _20  and  _21
REMARK    7  A    between atoms: _24  and  _26
REMARK    8  A    between atoms: _26  and  _27
REMARK    9  A    between atoms: _26  and  _29
REMARK   10  A    between atoms: _32  and  _34
REMARK   11  A    between atoms: _34  and  _35
REMARK   12  A    between atoms: _34  and  _37
REMARK   13  A    between atoms: _37  and  _38
REMARK   14  A    between atoms: _41  and  _43
REMARK   15  A    between atoms: _43  and  _44
REMARK   16  A    between atoms: _43  and  _46
REMARK   17  A    between atoms: _46  and  _47
REMARK   18  A    between atoms: _50  and  _52
REMARK   19  A    between atoms: _52  and  _53
REMARK   20  A    between atoms: _55  and  _57
REMARK   21  A    between atoms: _57  and  _58
REMARK   22  A    between atoms: _61  and  _63
REMARK   23  A    between atoms: _63  and  _64
REMARK   24  A    between atoms: _63  and  _66
REMARK   25  A    between atoms: _66  and  _67
REMARK   26  A    between atoms: _67  and  _68
REMARK   27  A    between atoms: _73  and  _75
REMARK   28  A    between atoms: _75  and  _76
REMARK   29  A    between atoms: _75  and  _78
REMARK   30  A    between atoms: _78  and  _79
REMARK   31  A    between atoms: _84  and  _86
REMARK   32  A    between atoms: _86  and  _87
REMARK   33  A    between atoms: _86  and  _89
REMARK   34  A    between atoms: _89  and  _90
REMARK   35  A    between atoms: _92  and  _94
REMARK   36  A    between atoms: _94  and  _95
REMARK   37  A    between atoms: _94  and  _97
REMARK   38  A    between atoms: _100  and  _102
REMARK   39  A    between atoms: _102  and  _103
REMARK   40  A    between atoms: _102  and  _105
REMARK   41  A    between atoms: _105  and  _106
REMARK   42  A    between atoms: _108  and  _110
REMARK   43  A    between atoms: _110  and  _111
REMARK   44  A    between atoms: _114  and  _116
REMARK   45  A    between atoms: _116  and  _117
REMARK   46  A    between atoms: _116  and  _119
REMARK   47  A    between atoms: _119  and  _120
REMARK   48  A    between atoms: _130  and  _132
REMARK   49  A    between atoms: _132  and  _133
REMARK   50  A    between atoms: _132  and  _135
REMARK   51  A    between atoms: _138  and  _140
REMARK   52  A    between atoms: _140  and  _141
REMARK   53  A    between atoms: _140  and  _143
REMARK   54  A    between atoms: _143  and  _144
REMARK   55  A    between atoms: _144  and  _145
REMARK   56  A    between atoms: _150  and  _152
REMARK   57  A    between atoms: _152  and  _153
REMARK   58  A    between atoms: _155  and  _157
REMARK   59  A    between atoms: _157  and  _158
REMARK   60  A    between atoms: _161  and  _163
REMARK   61  A    between atoms: _163  and  _164
REMARK   62  A    between atoms: _163  and  _166
REMARK   63  A    between atoms: _166  and  _167
REMARK   64  A    between atoms: _170  and  _172
REMARK   65  A    between atoms: _172  and  _173
REMARK   66  A    between atoms: _175  and  _177
REMARK   67  A    between atoms: _177  and  _178
REMARK   68  A    between atoms: _180  and  _182
REMARK   69  A    between atoms: _182  and  _183
REMARK   70  A    between atoms: _182  and  _185
REMARK   71  A    between atoms: _185  and  _186
REMARK   72  A    between atoms: _186  and  _187
REMARK   73  A    between atoms: _187  and  _188
REMARK   74  A    between atoms: _188  and  _189
REMARK   75  A    between atoms: _193  and  _195
REMARK   76  A    between atoms: _195  and  _196
REMARK   77  A    between atoms: _195  and  _198
REMARK   78  A    between atoms: _198  and  _199
REMARK   79  A    between atoms: _204  and  _205
REMARK   80  A    between atoms: _207  and  _209
REMARK   81  A    between atoms: _209  and  _210
REMARK   82  A    between atoms: _209  and  _212
REMARK   83  A    between atoms: _212  and  _213
REMARK   84  A    between atoms: _223  and  _225
REMARK   85  A    between atoms: _225  and  _226
REMARK   86  A    between atoms: _225  and  _228
REMARK   87  A    between atoms: _228  and  _229
REMARK   88  A    between atoms: _232  and  _234
REMARK   89  A    between atoms: _234  and  _235
REMARK   90  A    between atoms: _234  and  _237
REMARK   91  A    between atoms: _240  and  _242
REMARK   92  A    between atoms: _242  and  _243
REMARK   93  A    between atoms: _242  and  _245
REMARK   94  A    between atoms: _245  and  _246
REMARK   95  A    between atoms: _249  and  _251
REMARK   96  A    between atoms: _251  and  _252
REMARK   97  A    between atoms: _251  and  _254
REMARK   98  A    between atoms: _257  and  _258
REMARK   99  A    between atoms: _263  and  _265
REMARK  100  A    between atoms: _265  and  _266
REMARK  101  A    between atoms: _265  and  _268
REMARK  102  A    between atoms: _268  and  _269
REMARK  103  A    between atoms: _274  and  _275
REMARK  104  A    between atoms: _278  and  _279
REMARK  105  A    between atoms: _284  and  _286
REMARK  106  A    between atoms: _286  and  _287
REMARK  107  A    between atoms: _286  and  _289
REMARK  108  A    between atoms: _289  and  _290
REMARK  109  A    between atoms: _293  and  _295
REMARK  110  A    between atoms: _295  and  _296
REMARK  111  A    between atoms: _295  and  _298
REMARK  112  A    between atoms: _298  and  _299
REMARK  113  A    between atoms: _302  and  _304
REMARK  114  A    between atoms: _304  and  _305
REMARK  115  A    between atoms: _307  and  _309
REMARK  116  A    between atoms: _309  and  _310
REMARK  117  A    between atoms: _309  and  _312
REMARK  118  A    between atoms: _312  and  _313
REMARK  119  A    between atoms: _313  and  _314
REMARK  120  A    between atoms: _314  and  _315
REMARK  121  A    between atoms: _325  and  _326
REMARK  122  A    between atoms: _331  and  _333
REMARK  123  A    between atoms: _333  and  _334
REMARK  124  A    between atoms: _333  and  _336
REMARK  125  A    between atoms: _336  and  _337
REMARK  126  A    between atoms: _340  and  _342
REMARK  127  A    between atoms: _342  and  _343
REMARK  128  A    between atoms: _342  and  _345
REMARK  129  A    between atoms: _348  and  _350
REMARK  130  A    between atoms: _350  and  _351
REMARK  131  A    between atoms: _350  and  _353
REMARK  132  A    between atoms: _353  and  _354
REMARK  133  A    between atoms: _357  and  _359
REMARK  134  A    between atoms: _359  and  _360
REMARK  135  A    between atoms: _359  and  _362
REMARK  136  A    between atoms: _362  and  _363
REMARK  137  A    between atoms: _366  and  _368
REMARK  138  A    between atoms: _368  and  _369
REMARK  139  A    between atoms: _371  and  _373
REMARK  140  A    between atoms: _373  and  _374
REMARK  141  A    between atoms: _377  and  _379
REMARK  142  A    between atoms: _379  and  _380
REMARK  143  A    between atoms: _379  and  _382
REMARK  144  A    between atoms: _382  and  _383
REMARK  145  A    between atoms: _383  and  _384
REMARK  146  A    between atoms: _389  and  _391
REMARK  147  A    between atoms: _391  and  _392
REMARK  148  A    between atoms: _391  and  _394
REMARK  149  A    between atoms: _394  and  _395
REMARK  150  A    between atoms: _400  and  _402
REMARK  151  A    between atoms: _402  and  _403
REMARK  152  A    between atoms: _402  and  _405
REMARK  153  A    between atoms: _405  and  _406
REMARK  154  A    between atoms: _408  and  _410
REMARK  155  A    between atoms: _410  and  _411
REMARK  156  A    between atoms: _410  and  _413
REMARK  157  A    between atoms: _416  and  _418
REMARK  158  A    between atoms: _418  and  _419
REMARK  159  A    between atoms: _418  and  _421
REMARK  160  A    between atoms: _421  and  _422
REMARK  161  A    between atoms: _424  and  _426
REMARK  162  A    between atoms: _426  and  _427
REMARK  163  A    between atoms: _430  and  _432
REMARK  164  A    between atoms: _432  and  _433
REMARK  165  A    between atoms: _432  and  _435
REMARK  166  A    between atoms: _435  and  _436
REMARK  167  A    between atoms: _446  and  _448
REMARK  168  A    between atoms: _448  and  _449
REMARK  169  A    between atoms: _448  and  _451
REMARK  170  A    between atoms: _454  and  _456
REMARK  171  A    between atoms: _456  and  _457
REMARK  172  A    between atoms: _456  and  _459
REMARK  173  A    between atoms: _459  and  _460
REMARK  174  A    between atoms: _460  and  _461
REMARK  175  A    between atoms: _466  and  _468
REMARK  176  A    between atoms: _468  and  _469
REMARK  177  A    between atoms: _471  and  _473
REMARK  178  A    between atoms: _473  and  _474
REMARK  179  A    between atoms: _477  and  _479
REMARK  180  A    between atoms: _479  and  _480
REMARK  181  A    between atoms: _479  and  _482
REMARK  182  A    between atoms: _482  and  _483
REMARK  183  A    between atoms: _486  and  _488
REMARK  184  A    between atoms: _488  and  _489
REMARK  185  A    between atoms: _491  and  _493
REMARK  186  A    between atoms: _493  and  _494
REMARK  187  A    between atoms: _496  and  _498
REMARK  188  A    between atoms: _498  and  _499
REMARK  189  A    between atoms: _498  and  _501
REMARK  190  A    between atoms: _501  and  _502
REMARK  191  A    between atoms: _502  and  _503
REMARK  192  A    between atoms: _503  and  _504
REMARK  193  A    between atoms: _504  and  _505
REMARK  194  A    between atoms: _509  and  _511
REMARK  195  A    between atoms: _511  and  _512
REMARK  196  A    between atoms: _511  and  _514
REMARK  197  A    between atoms: _514  and  _515
REMARK  198  A    between atoms: _515  and  _516
REMARK  199  A    between atoms: _516  and  _517
REMARK  200  A    between atoms: _526  and  _528
REMARK  201  A    between atoms: _528  and  _529
REMARK  202  A    between atoms: _528  and  _531
REMARK  203  A    between atoms: _531  and  _532
REMARK  204  A    between atoms: _537  and  _538
REMARK  205  A    between atoms: _540  and  _542
REMARK  206  A    between atoms: _542  and  _543
REMARK  207  A    between atoms: _542  and  _545
REMARK  208  A    between atoms: _545  and  _546
REMARK  209  A    between atoms: _556  and  _558
REMARK  210  A    between atoms: _558  and  _559
REMARK  211  A    between atoms: _558  and  _561
REMARK  212  A    between atoms: _561  and  _562
REMARK  213  A    between atoms: _564  and  _566
REMARK  214  A    between atoms: _566  and  _567
REMARK  215  A    between atoms: _566  and  _569
REMARK  216  A    between atoms: _569  and  _570
REMARK  217  A    between atoms: _573  and  _575
REMARK  218  A    between atoms: _575  and  _576
REMARK  219  A    between atoms: _575  and  _578
REMARK  220  A    between atoms: _581  and  _583
REMARK  221  A    between atoms: _583  and  _584
REMARK  222  A    between atoms: _583  and  _586
REMARK  223  A    between atoms: _586  and  _587
REMARK  224  A    between atoms: _590  and  _592
REMARK  225  A    between atoms: _592  and  _593
REMARK  226  A    between atoms: _592  and  _595
REMARK  227  A    between atoms: _598  and  _599
REMARK  228  A    between atoms: _604  and  _606
REMARK  229  A    between atoms: _606  and  _607
REMARK  230  A    between atoms: _606  and  _609
REMARK  231  A    between atoms: _609  and  _610
REMARK  232  A    between atoms: _615  and  _616
REMARK  233  A    between atoms: _619  and  _620
REMARK  234  A    between atoms: _625  and  _627
REMARK  235  A    between atoms: _627  and  _628
REMARK  236  A    between atoms: _627  and  _630
REMARK  237  A    between atoms: _630  and  _631
REMARK  238  A    between atoms: _634  and  _636
REMARK  239  A    between atoms: _636  and  _637
REMARK  240  A    between atoms: _636  and  _639
REMARK  241  A    between atoms: _639  and  _640
REMARK  242  A    between atoms: _643  and  _645
REMARK  243  A    between atoms: _645  and  _646
REMARK  244  A    between atoms: _648  and  _650
REMARK  245  A    between atoms: _650  and  _651
REMARK  246  A    between atoms: _650  and  _653
REMARK  247  A    between atoms: _653  and  _654
REMARK  248  A    between atoms: _654  and  _655
REMARK  249  A    between atoms: _655  and  _656
REMARK  250  A    between atoms: _665  and  _667
REMARK  251  A    between atoms: _667  and  _668
REMARK  252  A    between atoms: _667  and  _670
REMARK  253  A    between atoms: _670  and  _671
REMARK                            x       y       z     vdW  Elec       q    Type
REMARK                         _______ _______ _______ _____ _____    ______ ____
ROOT
ATOM      1  O   HOH     1       3.802   3.322  17.356  0.00  0.00    +0.000 OA
ENDROOT
TORSDOF 0
REMARK  Name = ../refined-set-2016/3slz/3slz_pocket.pdb
REMARK  253 active torsions:
REMARK  status: ('A' for Active; 'I' for Inactive)
REMARK    1  A    between atoms: _2  and  _3
REMARK    2  A    between atoms: _9  and  _10
REMARK    3  A    between atoms: _15  and  _17
REMARK    4  A    between atoms: _17  and  _18
REMARK    5  A    between atoms: _17  and  _20
REMARK    6  A    between atoms: _20  and  _21
REMARK    7  A    between atoms: _24  and  _26
REMARK    8  A    between atoms: _26  and  _27
REMARK    9  A    between atoms: _26  and  _29
REMARK   10  A    between atoms: _32  and  _34
REMARK   11  A    between atoms: _34  and  _35
REMARK   12  A    between atoms: _34  and  _37
REMARK   13  A    between atoms: _37  and  _38
REMARK   14  A    between atoms: _41  and  _43
REMARK   15  A    between atoms: _43  and  _44
REMARK   16  A    between atoms: _43  and  _46
REMARK   17  A    between atoms: _46  and  _47
REMARK   18  A    between atoms: _50  and  _52
REMARK   19  A    between atoms: _52  and  _53
REMARK   20  A    between atoms: _55  and  _57
REMARK   21  A    between atoms: _57  and  _58
REMARK   22  A    between atoms: _61  and  _63
REMARK   23  A    between atoms: _63  and  _64
REMARK   24  A    between atoms: _63  and  _66
REMARK   25  A    between atoms: _66  and  _67
REMARK   26  A    between atoms: _67  and  _68
REMARK   27  A    between atoms: _73  and  _75
REMARK   28  A    between atoms: _75  and  _76
REMARK   29  A    between atoms: _75  and  _78
REMARK   30  A    between atoms: _78  and  _79
REMARK   31  A    between atoms: _84  and  _86
REMARK   32  A    between atoms: _86  and  _87
REMARK   33  A    between atoms: _86  and  _89
REMARK   34  A    between atoms: _89  and  _90
REMARK   35  A    between atoms: _92  and  _94
REMARK   36  A    between atoms: _94  and  _95
REMARK   37  A    between atoms: _94  and  _97
REMARK   38  A    between atoms: _100  and  _102
REMARK   39  A    between atoms: _102  and  _103
REMARK   40  A    between atoms: _102  and  _105
REMARK   41  A    between atoms: _105  and  _106
REMARK   42  A    between atoms: _108  and  _110
REMARK   43  A    between atoms: _110  and  _111
REMARK   44  A    between atoms: _114  and  _116
REMARK   45  A    between atoms: _116  and  _117
REMARK   46  A    between atoms: _116  and  _119
REMARK   47  A    between atoms: _119  and  _120
REMARK   48  A    between atoms: _130  and  _132
REMARK   49  A    between atoms: _132  and  _133
REMARK   50  A    between atoms: _132  and  _135
REMARK   51  A    between atoms: _138  and  _140
REMARK   52  A    between atoms: _140  and  _141
REMARK   53  A    between atoms: _140  and  _143
REMARK   54  A    between atoms: _143  and  _144
REMARK   55  A    between atoms: _144  and  _145
REMARK   56  A    between atoms: _150  and  _152
REMARK   57  A    between atoms: _152  and  _153
REMARK   58  A    between atoms: _155  and  _157
REMARK   59  A    between atoms: _157  and  _158
REMARK   60  A    between atoms: _161  and  _163
REMARK   61  A    between atoms: _163  and  _164
REMARK   62  A    between atoms: _163  and  _166
REMARK   63  A    between atoms: _166  and  _167
REMARK   64  A    between atoms: _170  and  _172
REMARK   65  A    between atoms: _172  and  _173
REMARK   66  A    between atoms: _175  and  _177
REMARK   67  A    between atoms: _177  and  _178
REMARK   68  A    between atoms: _180  and  _182
REMARK   69  A    between atoms: _182  and  _183
REMARK   70  A    between atoms: _182  and  _185
REMARK   71  A    between atoms: _185  and  _186
REMARK   72  A    between atoms: _186  and  _187
REMARK   73  A    between atoms: _187  and  _188
REMARK   74  A    between atoms: _188  and  _189
REMARK   75  A    between atoms: _193  and  _195
REMARK   76  A    between atoms: _195  and  _196
REMARK   77  A    between atoms: _195  and  _198
REMARK   78  A    between atoms: _198  and  _199
REMARK   79  A    between atoms: _204  and  _205
REMARK   80  A    between atoms: _207  and  _209
REMARK   81  A    between atoms: _209  and  _210
REMARK   82  A    between atoms: _209  and  _212
REMARK   83  A    between atoms: _212  and  _213
REMARK   84  A    between atoms: _223  and  _225
REMARK   85  A    between atoms: _225  and  _226
REMARK   86  A    between atoms: _225  and  _228
REMARK   87  A    between atoms: _228  and  _229
REMARK   88  A    between atoms: _232  and  _234
REMARK   89  A    between atoms: _234  and  _235
REMARK   90  A    between atoms: _234  and  _237
REMARK   91  A    between atoms: _240  and  _242
REMARK   92  A    between atoms: _242  and  _243
REMARK   93  A    between atoms: _242  and  _245
REMARK   94  A    between atoms: _245  and  _246
REMARK   95  A    between atoms: _249  and  _251
REMARK   96  A    between atoms: _251  and  _252
REMARK   97  A    between atoms: _251  and  _254
REMARK   98  A    between atoms: _257  and  _258
REMARK   99  A    between atoms: _263  and  _265
REMARK  100  A    between atoms: _265  and  _266
REMARK  101  A    between atoms: _265  and  _268
REMARK  102  A    between atoms: _268  and  _269
REMARK  103  A    between atoms: _274  and  _275
REMARK  104  A    between atoms: _278  and  _279
REMARK  105  A    between atoms: _284  and  _286
REMARK  106  A    between atoms: _286  and  _287
REMARK  107  A    between atoms: _286  and  _289
REMARK  108  A    between atoms: _289  and  _290
REMARK  109  A    between atoms: _293  and  _295
REMARK  110  A    between atoms: _295  and  _296
REMARK  111  A    between atoms: _295  and  _298
REMARK  112  A    between atoms: _298  and  _299
REMARK  113  A    between atoms: _302  and  _304
REMARK  114  A    between atoms: _304  and  _305
REMARK  115  A    between atoms: _307  and  _309
REMARK  116  A    between atoms: _309  and  _310
REMARK  117  A    between atoms: _309  and  _312
REMARK  118  A    between atoms: _312  and  _313
REMARK  119  A    between atoms: _313  and  _314
REMARK  120  A    between atoms: _314  and  _315
REMARK  121  A    between atoms: _325  and  _326
REMARK  122  A    between atoms: _331  and  _333
REMARK  123  A    between atoms: _333  and  _334
REMARK  124  A    between atoms: _333  and  _336
REMARK  125  A    between atoms: _336  and  _337
REMARK  126  A    between atoms: _340  and  _342
REMARK  127  A    between atoms: _342  and  _343
REMARK  128  A    between atoms: _342  and  _345
REMARK  129  A    between atoms: _348  and  _350
REMARK  130  A    between atoms: _350  and  _351
REMARK  131  A    between atoms: _350  and  _353
REMARK  132  A    between atoms: _353  and  _354
REMARK  133  A    between atoms: _357  and  _359
REMARK  134  A    between atoms: _359  and  _360
REMARK  135  A    between atoms: _359  and  _362
REMARK  136  A    between atoms: _362  and  _363
REMARK  137  A    between atoms: _366  and  _368
REMARK  138  A    between atoms: _368  and  _369
REMARK  139  A    between atoms: _371  and  _373
REMARK  140  A    between atoms: _373  and  _374
REMARK  141  A    between atoms: _377  and  _379
REMARK  142  A    between atoms: _379  and  _380
REMARK  143  A    between atoms: _379  and  _382
REMARK  144  A    between atoms: _382  and  _383
REMARK  145  A    between atoms: _383  and  _384
REMARK  146  A    between atoms: _389  and  _391
REMARK  147  A    between atoms: _391  and  _392
REMARK  148  A    between atoms: _391  and  _394
REMARK  149  A    between atoms: _394  and  _395
REMARK  150  A    between atoms: _400  and  _402
REMARK  151  A    between atoms: _402  and  _403
REMARK  152  A    between atoms: _402  and  _405
REMARK  153  A    between atoms: _405  and  _406
REMARK  154  A    between atoms: _408  and  _410
REMARK  155  A    between atoms: _410  and  _411
REMARK  156  A    between atoms: _410  and  _413
REMARK  157  A    between atoms: _416  and  _418
REMARK  158  A    between atoms: _418  and  _419
REMARK  159  A    between atoms: _418  and  _421
REMARK  160  A    between atoms: _421  and  _422
REMARK  161  A    between atoms: _424  and  _426
REMARK  162  A    between atoms: _426  and  _427
REMARK  163  A    between atoms: _430  and  _432
REMARK  164  A    between atoms: _432  and  _433
REMARK  165  A    between atoms: _432  and  _435
REMARK  166  A    between atoms: _435  and  _436
REMARK  167  A    between atoms: _446  and  _448
REMARK  168  A    between atoms: _448  and  _449
REMARK  169  A    between atoms: _448  and  _451
REMARK  170  A    between atoms: _454  and  _456
REMARK  171  A    between atoms: _456  and  _457
REMARK  172  A    between atoms: _456  and  _459
REMARK  173  A    between atoms: _459  and  _460
REMARK  174  A    between atoms: _460  and  _461
REMARK  175  A    between atoms: _466  and  _468
REMARK  176  A    between atoms: _468  and  _469
REMARK  177  A    between atoms: _471  and  _473
REMARK  178  A    between atoms: _473  and  _474
REMARK  179  A    between atoms: _477  and  _479
REMARK  180  A    between atoms: _479  and  _480
REMARK  181  A    between atoms: _479  and  _482
REMARK  182  A    between atoms: _482  and  _483
REMARK  183  A    between atoms: _486  and  _488
REMARK  184  A    between atoms: _488  and  _489
REMARK  185  A    between atoms: _491  and  _493
REMARK  186  A    between atoms: _493  and  _494
REMARK  187  A    between atoms: _496  and  _498
REMARK  188  A    between atoms: _498  and  _499
REMARK  189  A    between atoms: _498  and  _501
REMARK  190  A    between atoms: _501  and  _502
REMARK  191  A    between atoms: _502  and  _503
REMARK  192  A    between atoms: _503  and  _504
REMARK  193  A    between atoms: _504  and  _505
REMARK  194  A    between atoms: _509  and  _511
REMARK  195  A    between atoms: _511  and  _512
REMARK  196  A    between atoms: _511  and  _514
REMARK  197  A    between atoms: _514  and  _515
REMARK  198  A    between atoms: _515  and  _516
REMARK  199  A    between atoms: _516  and  _517
REMARK  200  A    between atoms: _526  and  _528
REMARK  201  A    between atoms: _528  and  _529
REMARK  202  A    between atoms: _528  and  _531
REMARK  203  A    between atoms: _531  and  _532
REMARK  204  A    between atoms: _537  and  _538
REMARK  205  A    between atoms: _540  and  _542
REMARK  206  A    between atoms: _542  and  _543
REMARK  207  A    between atoms: _542  and  _545
REMARK  208  A    between atoms: _545  and  _546
REMARK  209  A    between atoms: _556  and  _558
REMARK  210  A    between atoms: _558  and  _559
REMARK  211  A    between atoms: _558  and  _561
REMARK  212  A    between atoms: _561  and  _562
REMARK  213  A    between atoms: _564  and  _566
REMARK  214  A    between atoms: _566  and  _567
REMARK  215  A    between atoms: _566  and  _569
REMARK  216  A    between atoms: _569  and  _570
REMARK  217  A    between atoms: _573  and  _575
REMARK  218  A    between atoms: _575  and  _576
REMARK  219  A    between atoms: _575  and  _578
REMARK  220  A    between atoms: _581  and  _583
REMARK  221  A    between atoms: _583  and  _584
REMARK  222  A    between atoms: _583  and  _586
REMARK  223  A    between atoms: _586  and  _587
REMARK  224  A    between atoms: _590  and  _592
REMARK  225  A    between atoms: _592  and  _593
REMARK  226  A    between atoms: _592  and  _595
REMARK  227  A    between atoms: _598  and  _599
REMARK  228  A    between atoms: _604  and  _606
REMARK  229  A    between atoms: _606  and  _607
REMARK  230  A    between atoms: _606  and  _609
REMARK  231  A    between atoms: _609  and  _610
REMARK  232  A    between atoms: _615  and  _616
REMARK  233  A    between atoms: _619  and  _620
REMARK  234  A    between atoms: _625  and  _627
REMARK  235  A    between atoms: _627  and  _628
REMARK  236  A    between atoms: _627  and  _630
REMARK  237  A    between atoms: _630  and  _631
REMARK  238  A    between atoms: _634  and  _636
REMARK  239  A    between atoms: _636  and  _637
REMARK  240  A    between atoms: _636  and  _639
REMARK  241  A    between atoms: _639  and  _640
REMARK  242  A    between atoms: _643  and  _645
REMARK  243  A    between atoms: _645  and  _646
REMARK  244  A    between atoms: _648  and  _650
REMARK  245  A    between atoms: _650  and  _651
REMARK  246  A    between atoms: _650  and  _653
REMARK  247  A    between atoms: _653  and  _654
REMARK  248  A    between atoms: _654  and  _655
REMARK  249  A    between atoms: _655  and  _656
REMARK  250  A    between atoms: _665  and  _667
REMARK  251  A    between atoms: _667  and  _668
REMARK  252  A    between atoms: _667  and  _670
REMARK  253  A    between atoms: _670  and  _671
REMARK                            x       y       z     vdW  Elec       q    Type
REMARK                         _______ _______ _______ _____ _____    ______ ____
ROOT
ATOM      1  O   HOH     1       4.326   0.721  15.577  0.00  0.00    +0.000 OA
ENDROOT
TORSDOF 0
REMARK  Name = ../refined-set-2016/3slz/3slz_pocket.pdb
REMARK  253 active torsions:
REMARK  status: ('A' for Active; 'I' for Inactive)
REMARK    1  A    between atoms: _2  and  _3
REMARK    2  A    between atoms: _9  and  _10
REMARK    3  A    between atoms: _15  and  _17
REMARK    4  A    between atoms: _17  and  _18
REMARK    5  A    between atoms: _17  and  _20
REMARK    6  A    between atoms: _20  and  _21
REMARK    7  A    between atoms: _24  and  _26
REMARK    8  A    between atoms: _26  and  _27
REMARK    9  A    between atoms: _26  and  _29
REMARK   10  A    between atoms: _32  and  _34
REMARK   11  A    between atoms: _34  and  _35
REMARK   12  A    between atoms: _34  and  _37
REMARK   13  A    between atoms: _37  and  _38
REMARK   14  A    between atoms: _41  and  _43
REMARK   15  A    between atoms: _43  and  _44
REMARK   16  A    between atoms: _43  and  _46
REMARK   17  A    between atoms: _46  and  _47
REMARK   18  A    between atoms: _50  and  _52
REMARK   19  A    between atoms: _52  and  _53
REMARK   20  A    between atoms: _55  and  _57
REMARK   21  A    between atoms: _57  and  _58
REMARK   22  A    between atoms: _61  and  _63
REMARK   23  A    between atoms: _63  and  _64
REMARK   24  A    between atoms: _63  and  _66
REMARK   25  A    between atoms: _66  and  _67
REMARK   26  A    between atoms: _67  and  _68
REMARK   27  A    between atoms: _73  and  _75
REMARK   28  A    between atoms: _75  and  _76
REMARK   29  A    between atoms: _75  and  _78
REMARK   30  A    between atoms: _78  and  _79
REMARK   31  A    between atoms: _84  and  _86
REMARK   32  A    between atoms: _86  and  _87
REMARK   33  A    between atoms: _86  and  _89
REMARK   34  A    between atoms: _89  and  _90
REMARK   35  A    between atoms: _92  and  _94
REMARK   36  A    between atoms: _94  and  _95
REMARK   37  A    between atoms: _94  and  _97
REMARK   38  A    between atoms: _100  and  _102
REMARK   39  A    between atoms: _102  and  _103
REMARK   40  A    between atoms: _102  and  _105
REMARK   41  A    between atoms: _105  and  _106
REMARK   42  A    between atoms: _108  and  _110
REMARK   43  A    between atoms: _110  and  _111
REMARK   44  A    between atoms: _114  and  _116
REMARK   45  A    between atoms: _116  and  _117
REMARK   46  A    between atoms: _116  and  _119
REMARK   47  A    between atoms: _119  and  _120
REMARK   48  A    between atoms: _130  and  _132
REMARK   49  A    between atoms: _132  and  _133
REMARK   50  A    between atoms: _132  and  _135
REMARK   51  A    between atoms: _138  and  _140
REMARK   52  A    between atoms: _140  and  _141
REMARK   53  A    between atoms: _140  and  _143
REMARK   54  A    between atoms: _143  and  _144
REMARK   55  A    between atoms: _144  and  _145
REMARK   56  A    between atoms: _150  and  _152
REMARK   57  A    between atoms: _152  and  _153
REMARK   58  A    between atoms: _155  and  _157
REMARK   59  A    between atoms: _157  and  _158
REMARK   60  A    between atoms: _161  and  _163
REMARK   61  A    between atoms: _163  and  _164
REMARK   62  A    between atoms: _163  and  _166
REMARK   63  A    between atoms: _166  and  _167
REMARK   64  A    between atoms: _170  and  _172
REMARK   65  A    between atoms: _172  and  _173
REMARK   66  A    between atoms: _175  and  _177
REMARK   67  A    between atoms: _177  and  _178
REMARK   68  A    between atoms: _180  and  _182
REMARK   69  A    between atoms: _182  and  _183
REMARK   70  A    between atoms: _182  and  _185
REMARK   71  A    between atoms: _185  and  _186
REMARK   72  A    between atoms: _186  and  _187
REMARK   73  A    between atoms: _187  and  _188
REMARK   74  A    between atoms: _188  and  _189
REMARK   75  A    between atoms: _193  and  _195
REMARK   76  A    between atoms: _195  and  _196
REMARK   77  A    between atoms: _195  and  _198
REMARK   78  A    between atoms: _198  and  _199
REMARK   79  A    between atoms: _204  and  _205
REMARK   80  A    between atoms: _207  and  _209
REMARK   81  A    between atoms: _209  and  _210
REMARK   82  A    between atoms: _209  and  _212
REMARK   83  A    between atoms: _212  and  _213
REMARK   84  A    between atoms: _223  and  _225
REMARK   85  A    between atoms: _225  and  _226
REMARK   86  A    between atoms: _225  and  _228
REMARK   87  A    between atoms: _228  and  _229
REMARK   88  A    between atoms: _232  and  _234
REMARK   89  A    between atoms: _234  and  _235
REMARK   90  A    between atoms: _234  and  _237
REMARK   91  A    between atoms: _240  and  _242
REMARK   92  A    between atoms: _242  and  _243
REMARK   93  A    between atoms: _242  and  _245
REMARK   94  A    between atoms: _245  and  _246
REMARK   95  A    between atoms: _249  and  _251
REMARK   96  A    between atoms: _251  and  _252
REMARK   97  A    between atoms: _251  and  _254
REMARK   98  A    between atoms: _257  and  _258
REMARK   99  A    between atoms: _263  and  _265
REMARK  100  A    between atoms: _265  and  _266
REMARK  101  A    between atoms: _265  and  _268
REMARK  102  A    between atoms: _268  and  _269
REMARK  103  A    between atoms: _274  and  _275
REMARK  104  A    between atoms: _278  and  _279
REMARK  105  A    between atoms: _284  and  _286
REMARK  106  A    between atoms: _286  and  _287
REMARK  107  A    between atoms: _286  and  _289
REMARK  108  A    between atoms: _289  and  _290
REMARK  109  A    between atoms: _293  and  _295
REMARK  110  A    between atoms: _295  and  _296
REMARK  111  A    between atoms: _295  and  _298
REMARK  112  A    between atoms: _298  and  _299
REMARK  113  A    between atoms: _302  and  _304
REMARK  114  A    between atoms: _304  and  _305
REMARK  115  A    between atoms: _307  and  _309
REMARK  116  A    between atoms: _309  and  _310
REMARK  117  A    between atoms: _309  and  _312
REMARK  118  A    between atoms: _312  and  _313
REMARK  119  A    between atoms: _313  and  _314
REMARK  120  A    between atoms: _314  and  _315
REMARK  121  A    between atoms: _325  and  _326
REMARK  122  A    between atoms: _331  and  _333
REMARK  123  A    between atoms: _333  and  _334
REMARK  124  A    between atoms: _333  and  _336
REMARK  125  A    between atoms: _336  and  _337
REMARK  126  A    between atoms: _340  and  _342
REMARK  127  A    between atoms: _342  and  _343
REMARK  128  A    between atoms: _342  and  _345
REMARK  129  A    between atoms: _348  and  _350
REMARK  130  A    between atoms: _350  and  _351
REMARK  131  A    between atoms: _350  and  _353
REMARK  132  A    between atoms: _353  and  _354
REMARK  133  A    between atoms: _357  and  _359
REMARK  134  A    between atoms: _359  and  _360
REMARK  135  A    between atoms: _359  and  _362
REMARK  136  A    between atoms: _362  and  _363
REMARK  137  A    between atoms: _366  and  _368
REMARK  138  A    between atoms: _368  and  _369
REMARK  139  A    between atoms: _371  and  _373
REMARK  140  A    between atoms: _373  and  _374
REMARK  141  A    between atoms: _377  and  _379
REMARK  142  A    between atoms: _379  and  _380
REMARK  143  A    between atoms: _379  and  _382
REMARK  144  A    between atoms: _382  and  _383
REMARK  145  A    between atoms: _383  and  _384
REMARK  146  A    between atoms: _389  and  _391
REMARK  147  A    between atoms: _391  and  _392
REMARK  148  A    between atoms: _391  and  _394
REMARK  149  A    between atoms: _394  and  _395
REMARK  150  A    between atoms: _400  and  _402
REMARK  151  A    between atoms: _402  and  _403
REMARK  152  A    between atoms: _402  and  _405
REMARK  153  A    between atoms: _405  and  _406
REMARK  154  A    between atoms: _408  and  _410
REMARK  155  A    between atoms: _410  and  _411
REMARK  156  A    between atoms: _410  and  _413
REMARK  157  A    between atoms: _416  and  _418
REMARK  158  A    between atoms: _418  and  _419
REMARK  159  A    between atoms: _418  and  _421
REMARK  160  A    between atoms: _421  and  _422
REMARK  161  A    between atoms: _424  and  _426
REMARK  162  A    between atoms: _426  and  _427
REMARK  163  A    between atoms: _430  and  _432
REMARK  164  A    between atoms: _432  and  _433
REMARK  165  A    between atoms: _432  and  _435
REMARK  166  A    between atoms: _435  and  _436
REMARK  167  A    between atoms: _446  and  _448
REMARK  168  A    between atoms: _448  and  _449
REMARK  169  A    between atoms: _448  and  _451
REMARK  170  A    between atoms: _454  and  _456
REMARK  171  A    between atoms: _456  and  _457
REMARK  172  A    between atoms: _456  and  _459
REMARK  173  A    between atoms: _459  and  _460
REMARK  174  A    between atoms: _460  and  _461
REMARK  175  A    between atoms: _466  and  _468
REMARK  176  A    between atoms: _468  and  _469
REMARK  177  A    between atoms: _471  and  _473
REMARK  178  A    between atoms: _473  and  _474
REMARK  179  A    between atoms: _477  and  _479
REMARK  180  A    between atoms: _479  and  _480
REMARK  181  A    between atoms: _479  and  _482
REMARK  182  A    between atoms: _482  and  _483
REMARK  183  A    between atoms: _486  and  _488
REMARK  184  A    between atoms: _488  and  _489
REMARK  185  A    between atoms: _491  and  _493
REMARK  186  A    between atoms: _493  and  _494
REMARK  187  A    between atoms: _496  and  _498
REMARK  188  A    between atoms: _498  and  _499
REMARK  189  A    between atoms: _498  and  _501
REMARK  190  A    between atoms: _501  and  _502
REMARK  191  A    between atoms: _502  and  _503
REMARK  192  A    between atoms: _503  and  _504
REMARK  193  A    between atoms: _504  and  _505
REMARK  194  A    between atoms: _509  and  _511
REMARK  195  A    between atoms: _511  and  _512
REMARK  196  A    between atoms: _511  and  _514
REMARK  197  A    between atoms: _514  and  _515
REMARK  198  A    between atoms: _515  and  _516
REMARK  199  A    between atoms: _516  and  _517
REMARK  200  A    between atoms: _526  and  _528
REMARK  201  A    between atoms: _528  and  _529
REMARK  202  A    between atoms: _528  and  _531
REMARK  203  A    between atoms: _531  and  _532
REMARK  204  A    between atoms: _537  and  _538
REMARK  205  A    between atoms: _540  and  _542
REMARK  206  A    between atoms: _542  and  _543
REMARK  207  A    between atoms: _542  and  _545
REMARK  208  A    between atoms: _545  and  _546
REMARK  209  A    between atoms: _556  and  _558
REMARK  210  A    between atoms: _558  and  _559
REMARK  211  A    between atoms: _558  and  _561
REMARK  212  A    between atoms: _561  and  _562
REMARK  213  A    between atoms: _564  and  _566
REMARK  214  A    between atoms: _566  and  _567
REMARK  215  A    between atoms: _566  and  _569
REMARK  216  A    between atoms: _569  and  _570
REMARK  217  A    between atoms: _573  and  _575
REMARK  218  A    between atoms: _575  and  _576
REMARK  219  A    between atoms: _575  and  _578
REMARK  220  A    between atoms: _581  and  _583
REMARK  221  A    between atoms: _583  and  _584
REMARK  222  A    between atoms: _583  and  _586
REMARK  223  A    between atoms: _586  and  _587
REMARK  224  A    between atoms: _590  and  _592
REMARK  225  A    between atoms: _592  and  _593
REMARK  226  A    between atoms: _592  and  _595
REMARK  227  A    between atoms: _598  and  _599
REMARK  228  A    between atoms: _604  and  _606
REMARK  229  A    between atoms: _606  and  _607
REMARK  230  A    between atoms: _606  and  _609
REMARK  231  A    between atoms: _609  and  _610
REMARK  232  A    between atoms: _615  and  _616
REMARK  233  A    between atoms: _619  and  _620
REMARK  234  A    between atoms: _625  and  _627
REMARK  235  A    between atoms: _627  and  _628
REMARK  236  A    between atoms: _627  and  _630
REMARK  237  A    between atoms: _630  and  _631
REMARK  238  A    between atoms: _634  and  _636
REMARK  239  A    between atoms: _636  and  _637
REMARK  240  A    between atoms: _636  and  _639
REMARK  241  A    between atoms: _639  and  _640
REMARK  242  A    between atoms: _643  and  _645
REMARK  243  A    between atoms: _645  and  _646
REMARK  244  A    between atoms: _648  and  _650
REMARK  245  A    between atoms: _650  and  _651
REMARK  246  A    between atoms: _650  and  _653
REMARK  247  A    between atoms: _653  and  _654
REMARK  248  A    between atoms: _654  and  _655
REMARK  249  A    between atoms: _655  and  _656
REMARK  250  A    between atoms: _665  and  _667
REMARK  251  A    between atoms: _667  and  _668
REMARK  252  A    between atoms: _667  and  _670
REMARK  253  A    between atoms: _670  and  _671
REMARK                            x       y       z     vdW  Elec       q    Type
REMARK                         _______ _______ _______ _____ _____    ______ ____
ROOT
ATOM      1  O   HOH     1       2.506  -7.646  20.269  0.00  0.00    +0.000 OA
ENDROOT
TORSDOF 0
REMARK  Name = ../refined-set-2016/3slz/3slz_pocket.pdb
REMARK  253 active torsions:
REMARK  status: ('A' for Active; 'I' for Inactive)
REMARK    1  A    between atoms: _2  and  _3
REMARK    2  A    between atoms: _9  and  _10
REMARK    3  A    between atoms: _15  and  _17
REMARK    4  A    between atoms: _17  and  _18
REMARK    5  A    between atoms: _17  and  _20
REMARK    6  A    between atoms: _20  and  _21
REMARK    7  A    between atoms: _24  and  _26
REMARK    8  A    between atoms: _26  and  _27
REMARK    9  A    between atoms: _26  and  _29
REMARK   10  A    between atoms: _32  and  _34
REMARK   11  A    between atoms: _34  and  _35
REMARK   12  A    between atoms: _34  and  _37
REMARK   13  A    between atoms: _37  and  _38
REMARK   14  A    between atoms: _41  and  _43
REMARK   15  A    between atoms: _43  and  _44
REMARK   16  A    between atoms: _43  and  _46
REMARK   17  A    between atoms: _46  and  _47
REMARK   18  A    between atoms: _50  and  _52
REMARK   19  A    between atoms: _52  and  _53
REMARK   20  A    between atoms: _55  and  _57
REMARK   21  A    between atoms: _57  and  _58
REMARK   22  A    between atoms: _61  and  _63
REMARK   23  A    between atoms: _63  and  _64
REMARK   24  A    between atoms: _63  and  _66
REMARK   25  A    between atoms: _66  and  _67
REMARK   26  A    between atoms: _67  and  _68
REMARK   27  A    between atoms: _73  and  _75
REMARK   28  A    between atoms: _75  and  _76
REMARK   29  A    between atoms: _75  and  _78
REMARK   30  A    between atoms: _78  and  _79
REMARK   31  A    between atoms: _84  and  _86
REMARK   32  A    between atoms: _86  and  _87
REMARK   33  A    between atoms: _86  and  _89
REMARK   34  A    between atoms: _89  and  _90
REMARK   35  A    between atoms: _92  and  _94
REMARK   36  A    between atoms: _94  and  _95
REMARK   37  A    between atoms: _94  and  _97
REMARK   38  A    between atoms: _100  and  _102
REMARK   39  A    between atoms: _102  and  _103
REMARK   40  A    between atoms: _102  and  _105
REMARK   41  A    between atoms: _105  and  _106
REMARK   42  A    between atoms: _108  and  _110
REMARK   43  A    between atoms: _110  and  _111
REMARK   44  A    between atoms: _114  and  _116
REMARK   45  A    between atoms: _116  and  _117
REMARK   46  A    between atoms: _116  and  _119
REMARK   47  A    between atoms: _119  and  _120
REMARK   48  A    between atoms: _130  and  _132
REMARK   49  A    between atoms: _132  and  _133
REMARK   50  A    between atoms: _132  and  _135
REMARK   51  A    between atoms: _138  and  _140
REMARK   52  A    between atoms: _140  and  _141
REMARK   53  A    between atoms: _140  and  _143
REMARK   54  A    between atoms: _143  and  _144
REMARK   55  A    between atoms: _144  and  _145
REMARK   56  A    between atoms: _150  and  _152
REMARK   57  A    between atoms: _152  and  _153
REMARK   58  A    between atoms: _155  and  _157
REMARK   59  A    between atoms: _157  and  _158
REMARK   60  A    between atoms: _161  and  _163
REMARK   61  A    between atoms: _163  and  _164
REMARK   62  A    between atoms: _163  and  _166
REMARK   63  A    between atoms: _166  and  _167
REMARK   64  A    between atoms: _170  and  _172
REMARK   65  A    between atoms: _172  and  _173
REMARK   66  A    between atoms: _175  and  _177
REMARK   67  A    between atoms: _177  and  _178
REMARK   68  A    between atoms: _180  and  _182
REMARK   69  A    between atoms: _182  and  _183
REMARK   70  A    between atoms: _182  and  _185
REMARK   71  A    between atoms: _185  and  _186
REMARK   72  A    between atoms: _186  and  _187
REMARK   73  A    between atoms: _187  and  _188
REMARK   74  A    between atoms: _188  and  _189
REMARK   75  A    between atoms: _193  and  _195
REMARK   76  A    between atoms: _195  and  _196
REMARK   77  A    between atoms: _195  and  _198
REMARK   78  A    between atoms: _198  and  _199
REMARK   79  A    between atoms: _204  and  _205
REMARK   80  A    between atoms: _207  and  _209
REMARK   81  A    between atoms: _209  and  _210
REMARK   82  A    between atoms: _209  and  _212
REMARK   83  A    between atoms: _212  and  _213
REMARK   84  A    between atoms: _223  and  _225
REMARK   85  A    between atoms: _225  and  _226
REMARK   86  A    between atoms: _225  and  _228
REMARK   87  A    between atoms: _228  and  _229
REMARK   88  A    between atoms: _232  and  _234
REMARK   89  A    between atoms: _234  and  _235
REMARK   90  A    between atoms: _234  and  _237
REMARK   91  A    between atoms: _240  and  _242
REMARK   92  A    between atoms: _242  and  _243
REMARK   93  A    between atoms: _242  and  _245
REMARK   94  A    between atoms: _245  and  _246
REMARK   95  A    between atoms: _249  and  _251
REMARK   96  A    between atoms: _251  and  _252
REMARK   97  A    between atoms: _251  and  _254
REMARK   98  A    between atoms: _257  and  _258
REMARK   99  A    between atoms: _263  and  _265
REMARK  100  A    between atoms: _265  and  _266
REMARK  101  A    between atoms: _265  and  _268
REMARK  102  A    between atoms: _268  and  _269
REMARK  103  A    between atoms: _274  and  _275
REMARK  104  A    between atoms: _278  and  _279
REMARK  105  A    between atoms: _284  and  _286
REMARK  106  A    between atoms: _286  and  _287
REMARK  107  A    between atoms: _286  and  _289
REMARK  108  A    between atoms: _289  and  _290
REMARK  109  A    between atoms: _293  and  _295
REMARK  110  A    between atoms: _295  and  _296
REMARK  111  A    between atoms: _295  and  _298
REMARK  112  A    between atoms: _298  and  _299
REMARK  113  A    between atoms: _302  and  _304
REMARK  114  A    between atoms: _304  and  _305
REMARK  115  A    between atoms: _307  and  _309
REMARK  116  A    between atoms: _309  and  _310
REMARK  117  A    between atoms: _309  and  _312
REMARK  118  A    between atoms: _312  and  _313
REMARK  119  A    between atoms: _313  and  _314
REMARK  120  A    between atoms: _314  and  _315
REMARK  121  A    between atoms: _325  and  _326
REMARK  122  A    between atoms: _331  and  _333
REMARK  123  A    between atoms: _333  and  _334
REMARK  124  A    between atoms: _333  and  _336
REMARK  125  A    between atoms: _336  and  _337
REMARK  126  A    between atoms: _340  and  _342
REMARK  127  A    between atoms: _342  and  _343
REMARK  128  A    between atoms: _342  and  _345
REMARK  129  A    between atoms: _348  and  _350
REMARK  130  A    between atoms: _350  and  _351
REMARK  131  A    between atoms: _350  and  _353
REMARK  132  A    between atoms: _353  and  _354
REMARK  133  A    between atoms: _357  and  _359
REMARK  134  A    between atoms: _359  and  _360
REMARK  135  A    between atoms: _359  and  _362
REMARK  136  A    between atoms: _362  and  _363
REMARK  137  A    between atoms: _366  and  _368
REMARK  138  A    between atoms: _368  and  _369
REMARK  139  A    between atoms: _371  and  _373
REMARK  140  A    between atoms: _373  and  _374
REMARK  141  A    between atoms: _377  and  _379
REMARK  142  A    between atoms: _379  and  _380
REMARK  143  A    between atoms: _379  and  _382
REMARK  144  A    between atoms: _382  and  _383
REMARK  145  A    between atoms: _383  and  _384
REMARK  146  A    between atoms: _389  and  _391
REMARK  147  A    between atoms: _391  and  _392
REMARK  148  A    between atoms: _391  and  _394
REMARK  149  A    between atoms: _394  and  _395
REMARK  150  A    between atoms: _400  and  _402
REMARK  151  A    between atoms: _402  and  _403
REMARK  152  A    between atoms: _402  and  _405
REMARK  153  A    between atoms: _405  and  _406
REMARK  154  A    between atoms: _408  and  _410
REMARK  155  A    between atoms: _410  and  _411
REMARK  156  A    between atoms: _410  and  _413
REMARK  157  A    between atoms: _416  and  _418
REMARK  158  A    between atoms: _418  and  _419
REMARK  159  A    between atoms: _418  and  _421
REMARK  160  A    between atoms: _421  and  _422
REMARK  161  A    between atoms: _424  and  _426
REMARK  162  A    between atoms: _426  and  _427
REMARK  163  A    between atoms: _430  and  _432
REMARK  164  A    between atoms: _432  and  _433
REMARK  165  A    between atoms: _432  and  _435
REMARK  166  A    between atoms: _435  and  _436
REMARK  167  A    between atoms: _446  and  _448
REMARK  168  A    between atoms: _448  and  _449
REMARK  169  A    between atoms: _448  and  _451
REMARK  170  A    between atoms: _454  and  _456
REMARK  171  A    between atoms: _456  and  _457
REMARK  172  A    between atoms: _456  and  _459
REMARK  173  A    between atoms: _459  and  _460
REMARK  174  A    between atoms: _460  and  _461
REMARK  175  A    between atoms: _466  and  _468
REMARK  176  A    between atoms: _468  and  _469
REMARK  177  A    between atoms: _471  and  _473
REMARK  178  A    between atoms: _473  and  _474
REMARK  179  A    between atoms: _477  and  _479
REMARK  180  A    between atoms: _479  and  _480
REMARK  181  A    between atoms: _479  and  _482
REMARK  182  A    between atoms: _482  and  _483
REMARK  183  A    between atoms: _486  and  _488
REMARK  184  A    between atoms: _488  and  _489
REMARK  185  A    between atoms: _491  and  _493
REMARK  186  A    between atoms: _493  and  _494
REMARK  187  A    between atoms: _496  and  _498
REMARK  188  A    between atoms: _498  and  _499
REMARK  189  A    between atoms: _498  and  _501
REMARK  190  A    between atoms: _501  and  _502
REMARK  191  A    between atoms: _502  and  _503
REMARK  192  A    between atoms: _503  and  _504
REMARK  193  A    between atoms: _504  and  _505
REMARK  194  A    between atoms: _509  and  _511
REMARK  195  A    between atoms: _511  and  _512
REMARK  196  A    between atoms: _511  and  _514
REMARK  197  A    between atoms: _514  and  _515
REMARK  198  A    between atoms: _515  and  _516
REMARK  199  A    between atoms: _516  and  _517
REMARK  200  A    between atoms: _526  and  _528
REMARK  201  A    between atoms: _528  and  _529
REMARK  202  A    between atoms: _528  and  _531
REMARK  203  A    between atoms: _531  and  _532
REMARK  204  A    between atoms: _537  and  _538
REMARK  205  A    between atoms: _540  and  _542
REMARK  206  A    between atoms: _542  and  _543
REMARK  207  A    between atoms: _542  and  _545
REMARK  208  A    between atoms: _545  and  _546
REMARK  209  A    between atoms: _556  and  _558
REMARK  210  A    between atoms: _558  and  _559
REMARK  211  A    between atoms: _558  and  _561
REMARK  212  A    between atoms: _561  and  _562
REMARK  213  A    between atoms: _564  and  _566
REMARK  214  A    between atoms: _566  and  _567
REMARK  215  A    between atoms: _566  and  _569
REMARK  216  A    between atoms: _569  and  _570
REMARK  217  A    between atoms: _573  and  _575
REMARK  218  A    between atoms: _575  and  _576
REMARK  219  A    between atoms: _575  and  _578
REMARK  220  A    between atoms: _581  and  _583
REMARK  221  A    between atoms: _583  and  _584
REMARK  222  A    between atoms: _583  and  _586
REMARK  223  A    between atoms: _586  and  _587
REMARK  224  A    between atoms: _590  and  _592
REMARK  225  A    between atoms: _592  and  _593
REMARK  226  A    between atoms: _592  and  _595
REMARK  227  A    between atoms: _598  and  _599
REMARK  228  A    between atoms: _604  and  _606
REMARK  229  A    between atoms: _606  and  _607
REMARK  230  A    between atoms: _606  and  _609
REMARK  231  A    between atoms: _609  and  _610
REMARK  232  A    between atoms: _615  and  _616
REMARK  233  A    between atoms: _619  and  _620
REMARK  234  A    between atoms: _625  and  _627
REMARK  235  A    between atoms: _627  and  _628
REMARK  236  A    between atoms: _627  and  _630
REMARK  237  A    between atoms: _630  and  _631
REMARK  238  A    between atoms: _634  and  _636
REMARK  239  A    between atoms: _636  and  _637
REMARK  240  A    between atoms: _636  and  _639
REMARK  241  A    between atoms: _639  and  _640
REMARK  242  A    between atoms: _643  and  _645
REMARK  243  A    between atoms: _645  and  _646
REMARK  244  A    between atoms: _648  and  _650
REMARK  245  A    between atoms: _650  and  _651
REMARK  246  A    between atoms: _650  and  _653
REMARK  247  A    between atoms: _653  and  _654
REMARK  248  A    between atoms: _654  and  _655
REMARK  249  A    between atoms: _655  and  _656
REMARK  250  A    between atoms: _665  and  _667
REMARK  251  A    between atoms: _667  and  _668
REMARK  252  A    between atoms: _667  and  _670
REMARK  253  A    between atoms: _670  and  _671
REMARK                            x       y       z     vdW  Elec       q    Type
REMARK                         _______ _______ _______ _____ _____    ______ ____
ROOT
ATOM      1  O   HOH     1       2.702   3.373  20.618  0.00  0.00    +0.000 OA
ENDROOT
TORSDOF 0
REMARK  Name = ../refined-set-2016/3slz/3slz_pocket.pdb
REMARK  253 active torsions:
REMARK  status: ('A' for Active; 'I' for Inactive)
REMARK    1  A    between atoms: _2  and  _3
REMARK    2  A    between atoms: _9  and  _10
REMARK    3  A    between atoms: _15  and  _17
REMARK    4  A    between atoms: _17  and  _18
REMARK    5  A    between atoms: _17  and  _20
REMARK    6  A    between atoms: _20  and  _21
REMARK    7  A    between atoms: _24  and  _26
REMARK    8  A    between atoms: _26  and  _27
REMARK    9  A    between atoms: _26  and  _29
REMARK   10  A    between atoms: _32  and  _34
REMARK   11  A    between atoms: _34  and  _35
REMARK   12  A    between atoms: _34  and  _37
REMARK   13  A    between atoms: _37  and  _38
REMARK   14  A    between atoms: _41  and  _43
REMARK   15  A    between atoms: _43  and  _44
REMARK   16  A    between atoms: _43  and  _46
REMARK   17  A    between atoms: _46  and  _47
REMARK   18  A    between atoms: _50  and  _52
REMARK   19  A    between atoms: _52  and  _53
REMARK   20  A    between atoms: _55  and  _57
REMARK   21  A    between atoms: _57  and  _58
REMARK   22  A    between atoms: _61  and  _63
REMARK   23  A    between atoms: _63  and  _64
REMARK   24  A    between atoms: _63  and  _66
REMARK   25  A    between atoms: _66  and  _67
REMARK   26  A    between atoms: _67  and  _68
REMARK   27  A    between atoms: _73  and  _75
REMARK   28  A    between atoms: _75  and  _76
REMARK   29  A    between atoms: _75  and  _78
REMARK   30  A    between atoms: _78  and  _79
REMARK   31  A    between atoms: _84  and  _86
REMARK   32  A    between atoms: _86  and  _87
REMARK   33  A    between atoms: _86  and  _89
REMARK   34  A    between atoms: _89  and  _90
REMARK   35  A    between atoms: _92  and  _94
REMARK   36  A    between atoms: _94  and  _95
REMARK   37  A    between atoms: _94  and  _97
REMARK   38  A    between atoms: _100  and  _102
REMARK   39  A    between atoms: _102  and  _103
REMARK   40  A    between atoms: _102  and  _105
REMARK   41  A    between atoms: _105  and  _106
REMARK   42  A    between atoms: _108  and  _110
REMARK   43  A    between atoms: _110  and  _111
REMARK   44  A    between atoms: _114  and  _116
REMARK   45  A    between atoms: _116  and  _117
REMARK   46  A    between atoms: _116  and  _119
REMARK   47  A    between atoms: _119  and  _120
REMARK   48  A    between atoms: _130  and  _132
REMARK   49  A    between atoms: _132  and  _133
REMARK   50  A    between atoms: _132  and  _135
REMARK   51  A    between atoms: _138  and  _140
REMARK   52  A    between atoms: _140  and  _141
REMARK   53  A    between atoms: _140  and  _143
REMARK   54  A    between atoms: _143  and  _144
REMARK   55  A    between atoms: _144  and  _145
REMARK   56  A    between atoms: _150  and  _152
REMARK   57  A    between atoms: _152  and  _153
REMARK   58  A    between atoms: _155  and  _157
REMARK   59  A    between atoms: _157  and  _158
REMARK   60  A    between atoms: _161  and  _163
REMARK   61  A    between atoms: _163  and  _164
REMARK   62  A    between atoms: _163  and  _166
REMARK   63  A    between atoms: _166  and  _167
REMARK   64  A    between atoms: _170  and  _172
REMARK   65  A    between atoms: _172  and  _173
REMARK   66  A    between atoms: _175  and  _177
REMARK   67  A    between atoms: _177  and  _178
REMARK   68  A    between atoms: _180  and  _182
REMARK   69  A    between atoms: _182  and  _183
REMARK   70  A    between atoms: _182  and  _185
REMARK   71  A    between atoms: _185  and  _186
REMARK   72  A    between atoms: _186  and  _187
REMARK   73  A    between atoms: _187  and  _188
REMARK   74  A    between atoms: _188  and  _189
REMARK   75  A    between atoms: _193  and  _195
REMARK   76  A    between atoms: _195  and  _196
REMARK   77  A    between atoms: _195  and  _198
REMARK   78  A    between atoms: _198  and  _199
REMARK   79  A    between atoms: _204  and  _205
REMARK   80  A    between atoms: _207  and  _209
REMARK   81  A    between atoms: _209  and  _210
REMARK   82  A    between atoms: _209  and  _212
REMARK   83  A    between atoms: _212  and  _213
REMARK   84  A    between atoms: _223  and  _225
REMARK   85  A    between atoms: _225  and  _226
REMARK   86  A    between atoms: _225  and  _228
REMARK   87  A    between atoms: _228  and  _229
REMARK   88  A    between atoms: _232  and  _234
REMARK   89  A    between atoms: _234  and  _235
REMARK   90  A    between atoms: _234  and  _237
REMARK   91  A    between atoms: _240  and  _242
REMARK   92  A    between atoms: _242  and  _243
REMARK   93  A    between atoms: _242  and  _245
REMARK   94  A    between atoms: _245  and  _246
REMARK   95  A    between atoms: _249  and  _251
REMARK   96  A    between atoms: _251  and  _252
REMARK   97  A    between atoms: _251  and  _254
REMARK   98  A    between atoms: _257  and  _258
REMARK   99  A    between atoms: _263  and  _265
REMARK  100  A    between atoms: _265  and  _266
REMARK  101  A    between atoms: _265  and  _268
REMARK  102  A    between atoms: _268  and  _269
REMARK  103  A    between atoms: _274  and  _275
REMARK  104  A    between atoms: _278  and  _279
REMARK  105  A    between atoms: _284  and  _286
REMARK  106  A    between atoms: _286  and  _287
REMARK  107  A    between atoms: _286  and  _289
REMARK  108  A    between atoms: _289  and  _290
REMARK  109  A    between atoms: _293  and  _295
REMARK  110  A    between atoms: _295  and  _296
REMARK  111  A    between atoms: _295  and  _298
REMARK  112  A    between atoms: _298  and  _299
REMARK  113  A    between atoms: _302  and  _304
REMARK  114  A    between atoms: _304  and  _305
REMARK  115  A    between atoms: _307  and  _309
REMARK  116  A    between atoms: _309  and  _310
REMARK  117  A    between atoms: _309  and  _312
REMARK  118  A    between atoms: _312  and  _313
REMARK  119  A    between atoms: _313  and  _314
REMARK  120  A    between atoms: _314  and  _315
REMARK  121  A    between atoms: _325  and  _326
REMARK  122  A    between atoms: _331  and  _333
REMARK  123  A    between atoms: _333  and  _334
REMARK  124  A    between atoms: _333  and  _336
REMARK  125  A    between atoms: _336  and  _337
REMARK  126  A    between atoms: _340  and  _342
REMARK  127  A    between atoms: _342  and  _343
REMARK  128  A    between atoms: _342  and  _345
REMARK  129  A    between atoms: _348  and  _350
REMARK  130  A    between atoms: _350  and  _351
REMARK  131  A    between atoms: _350  and  _353
REMARK  132  A    between atoms: _353  and  _354
REMARK  133  A    between atoms: _357  and  _359
REMARK  134  A    between atoms: _359  and  _360
REMARK  135  A    between atoms: _359  and  _362
REMARK  136  A    between atoms: _362  and  _363
REMARK  137  A    between atoms: _366  and  _368
REMARK  138  A    between atoms: _368  and  _369
REMARK  139  A    between atoms: _371  and  _373
REMARK  140  A    between atoms: _373  and  _374
REMARK  141  A    between atoms: _377  and  _379
REMARK  142  A    between atoms: _379  and  _380
REMARK  143  A    between atoms: _379  and  _382
REMARK  144  A    between atoms: _382  and  _383
REMARK  145  A    between atoms: _383  and  _384
REMARK  146  A    between atoms: _389  and  _391
REMARK  147  A    between atoms: _391  and  _392
REMARK  148  A    between atoms: _391  and  _394
REMARK  149  A    between atoms: _394  and  _395
REMARK  150  A    between atoms: _400  and  _402
REMARK  151  A    between atoms: _402  and  _403
REMARK  152  A    between atoms: _402  and  _405
REMARK  153  A    between atoms: _405  and  _406
REMARK  154  A    between atoms: _408  and  _410
REMARK  155  A    between atoms: _410  and  _411
REMARK  156  A    between atoms: _410  and  _413
REMARK  157  A    between atoms: _416  and  _418
REMARK  158  A    between atoms: _418  and  _419
REMARK  159  A    between atoms: _418  and  _421
REMARK  160  A    between atoms: _421  and  _422
REMARK  161  A    between atoms: _424  and  _426
REMARK  162  A    between atoms: _426  and  _427
REMARK  163  A    between atoms: _430  and  _432
REMARK  164  A    between atoms: _432  and  _433
REMARK  165  A    between atoms: _432  and  _435
REMARK  166  A    between atoms: _435  and  _436
REMARK  167  A    between atoms: _446  and  _448
REMARK  168  A    between atoms: _448  and  _449
REMARK  169  A    between atoms: _448  and  _451
REMARK  170  A    between atoms: _454  and  _456
REMARK  171  A    between atoms: _456  and  _457
REMARK  172  A    between atoms: _456  and  _459
REMARK  173  A    between atoms: _459  and  _460
REMARK  174  A    between atoms: _460  and  _461
REMARK  175  A    between atoms: _466  and  _468
REMARK  176  A    between atoms: _468  and  _469
REMARK  177  A    between atoms: _471  and  _473
REMARK  178  A    between atoms: _473  and  _474
REMARK  179  A    between atoms: _477  and  _479
REMARK  180  A    between atoms: _479  and  _480
REMARK  181  A    between atoms: _479  and  _482
REMARK  182  A    between atoms: _482  and  _483
REMARK  183  A    between atoms: _486  and  _488
REMARK  184  A    between atoms: _488  and  _489
REMARK  185  A    between atoms: _491  and  _493
REMARK  186  A    between atoms: _493  and  _494
REMARK  187  A    between atoms: _496  and  _498
REMARK  188  A    between atoms: _498  and  _499
REMARK  189  A    between atoms: _498  and  _501
REMARK  190  A    between atoms: _501  and  _502
REMARK  191  A    between atoms: _502  and  _503
REMARK  192  A    between atoms: _503  and  _504
REMARK  193  A    between atoms: _504  and  _505
REMARK  194  A    between atoms: _509  and  _511
REMARK  195  A    between atoms: _511  and  _512
REMARK  196  A    between atoms: _511  and  _514
REMARK  197  A    between atoms: _514  and  _515
REMARK  198  A    between atoms: _515  and  _516
REMARK  199  A    between atoms: _516  and  _517
REMARK  200  A    between atoms: _526  and  _528
REMARK  201  A    between atoms: _528  and  _529
REMARK  202  A    between atoms: _528  and  _531
REMARK  203  A    between atoms: _531  and  _532
REMARK  204  A    between atoms: _537  and  _538
REMARK  205  A    between atoms: _540  and  _542
REMARK  206  A    between atoms: _542  and  _543
REMARK  207  A    between atoms: _542  and  _545
REMARK  208  A    between atoms: _545  and  _546
REMARK  209  A    between atoms: _556  and  _558
REMARK  210  A    between atoms: _558  and  _559
REMARK  211  A    between atoms: _558  and  _561
REMARK  212  A    between atoms: _561  and  _562
REMARK  213  A    between atoms: _564  and  _566
REMARK  214  A    between atoms: _566  and  _567
REMARK  215  A    between atoms: _566  and  _569
REMARK  216  A    between atoms: _569  and  _570
REMARK  217  A    between atoms: _573  and  _575
REMARK  218  A    between atoms: _575  and  _576
REMARK  219  A    between atoms: _575  and  _578
REMARK  220  A    between atoms: _581  and  _583
REMARK  221  A    between atoms: _583  and  _584
REMARK  222  A    between atoms: _583  and  _586
REMARK  223  A    between atoms: _586  and  _587
REMARK  224  A    between atoms: _590  and  _592
REMARK  225  A    between atoms: _592  and  _593
REMARK  226  A    between atoms: _592  and  _595
REMARK  227  A    between atoms: _598  and  _599
REMARK  228  A    between atoms: _604  and  _606
REMARK  229  A    between atoms: _606  and  _607
REMARK  230  A    between atoms: _606  and  _609
REMARK  231  A    between atoms: _609  and  _610
REMARK  232  A    between atoms: _615  and  _616
REMARK  233  A    between atoms: _619  and  _620
REMARK  234  A    between atoms: _625  and  _627
REMARK  235  A    between atoms: _627  and  _628
REMARK  236  A    between atoms: _627  and  _630
REMARK  237  A    between atoms: _630  and  _631
REMARK  238  A    between atoms: _634  and  _636
REMARK  239  A    between atoms: _636  and  _637
REMARK  240  A    between atoms: _636  and  _639
REMARK  241  A    between atoms: _639  and  _640
REMARK  242  A    between atoms: _643  and  _645
REMARK  243  A    between atoms: _645  and  _646
REMARK  244  A    between atoms: _648  and  _650
REMARK  245  A    between atoms: _650  and  _651
REMARK  246  A    between atoms: _650  and  _653
REMARK  247  A    between atoms: _653  and  _654
REMARK  248  A    between atoms: _654  and  _655
REMARK  249  A    between atoms: _655  and  _656
REMARK  250  A    between atoms: _665  and  _667
REMARK  251  A    between atoms: _667  and  _668
REMARK  252  A    between atoms: _667  and  _670
REMARK  253  A    between atoms: _670  and  _671
REMARK                            x       y       z     vdW  Elec       q    Type
REMARK                         _______ _______ _______ _____ _____    ______ ____
ROOT
ATOM      1  O   HOH     1       3.015  -5.692  17.311  0.00  0.00    +0.000 OA
ENDROOT
TORSDOF 0
REMARK  Name = ../refined-set-2016/3slz/3slz_pocket.pdb
REMARK  253 active torsions:
REMARK  status: ('A' for Active; 'I' for Inactive)
REMARK    1  A    between atoms: _2  and  _3
REMARK    2  A    between atoms: _9  and  _10
REMARK    3  A    between atoms: _15  and  _17
REMARK    4  A    between atoms: _17  and  _18
REMARK    5  A    between atoms: _17  and  _20
REMARK    6  A    between atoms: _20  and  _21
REMARK    7  A    between atoms: _24  and  _26
REMARK    8  A    between atoms: _26  and  _27
REMARK    9  A    between atoms: _26  and  _29
REMARK   10  A    between atoms: _32  and  _34
REMARK   11  A    between atoms: _34  and  _35
REMARK   12  A    between atoms: _34  and  _37
REMARK   13  A    between atoms: _37  and  _38
REMARK   14  A    between atoms: _41  and  _43
REMARK   15  A    between atoms: _43  and  _44
REMARK   16  A    between atoms: _43  and  _46
REMARK   17  A    between atoms: _46  and  _47
REMARK   18  A    between atoms: _50  and  _52
REMARK   19  A    between atoms: _52  and  _53
REMARK   20  A    between atoms: _55  and  _57
REMARK   21  A    between atoms: _57  and  _58
REMARK   22  A    between atoms: _61  and  _63
REMARK   23  A    between atoms: _63  and  _64
REMARK   24  A    between atoms: _63  and  _66
REMARK   25  A    between atoms: _66  and  _67
REMARK   26  A    between atoms: _67  and  _68
REMARK   27  A    between atoms: _73  and  _75
REMARK   28  A    between atoms: _75  and  _76
REMARK   29  A    between atoms: _75  and  _78
REMARK   30  A    between atoms: _78  and  _79
REMARK   31  A    between atoms: _84  and  _86
REMARK   32  A    between atoms: _86  and  _87
REMARK   33  A    between atoms: _86  and  _89
REMARK   34  A    between atoms: _89  and  _90
REMARK   35  A    between atoms: _92  and  _94
REMARK   36  A    between atoms: _94  and  _95
REMARK   37  A    between atoms: _94  and  _97
REMARK   38  A    between atoms: _100  and  _102
REMARK   39  A    between atoms: _102  and  _103
REMARK   40  A    between atoms: _102  and  _105
REMARK   41  A    between atoms: _105  and  _106
REMARK   42  A    between atoms: _108  and  _110
REMARK   43  A    between atoms: _110  and  _111
REMARK   44  A    between atoms: _114  and  _116
REMARK   45  A    between atoms: _116  and  _117
REMARK   46  A    between atoms: _116  and  _119
REMARK   47  A    between atoms: _119  and  _120
REMARK   48  A    between atoms: _130  and  _132
REMARK   49  A    between atoms: _132  and  _133
REMARK   50  A    between atoms: _132  and  _135
REMARK   51  A    between atoms: _138  and  _140
REMARK   52  A    between atoms: _140  and  _141
REMARK   53  A    between atoms: _140  and  _143
REMARK   54  A    between atoms: _143  and  _144
REMARK   55  A    between atoms: _144  and  _145
REMARK   56  A    between atoms: _150  and  _152
REMARK   57  A    between atoms: _152  and  _153
REMARK   58  A    between atoms: _155  and  _157
REMARK   59  A    between atoms: _157  and  _158
REMARK   60  A    between atoms: _161  and  _163
REMARK   61  A    between atoms: _163  and  _164
REMARK   62  A    between atoms: _163  and  _166
REMARK   63  A    between atoms: _166  and  _167
REMARK   64  A    between atoms: _170  and  _172
REMARK   65  A    between atoms: _172  and  _173
REMARK   66  A    between atoms: _175  and  _177
REMARK   67  A    between atoms: _177  and  _178
REMARK   68  A    between atoms: _180  and  _182
REMARK   69  A    between atoms: _182  and  _183
REMARK   70  A    between atoms: _182  and  _185
REMARK   71  A    between atoms: _185  and  _186
REMARK   72  A    between atoms: _186  and  _187
REMARK   73  A    between atoms: _187  and  _188
REMARK   74  A    between atoms: _188  and  _189
REMARK   75  A    between atoms: _193  and  _195
REMARK   76  A    between atoms: _195  and  _196
REMARK   77  A    between atoms: _195  and  _198
REMARK   78  A    between atoms: _198  and  _199
REMARK   79  A    between atoms: _204  and  _205
REMARK   80  A    between atoms: _207  and  _209
REMARK   81  A    between atoms: _209  and  _210
REMARK   82  A    between atoms: _209  and  _212
REMARK   83  A    between atoms: _212  and  _213
REMARK   84  A    between atoms: _223  and  _225
REMARK   85  A    between atoms: _225  and  _226
REMARK   86  A    between atoms: _225  and  _228
REMARK   87  A    between atoms: _228  and  _229
REMARK   88  A    between atoms: _232  and  _234
REMARK   89  A    between atoms: _234  and  _235
REMARK   90  A    between atoms: _234  and  _237
REMARK   91  A    between atoms: _240  and  _242
REMARK   92  A    between atoms: _242  and  _243
REMARK   93  A    between atoms: _242  and  _245
REMARK   94  A    between atoms: _245  and  _246
REMARK   95  A    between atoms: _249  and  _251
REMARK   96  A    between atoms: _251  and  _252
REMARK   97  A    between atoms: _251  and  _254
REMARK   98  A    between atoms: _257  and  _258
REMARK   99  A    between atoms: _263  and  _265
REMARK  100  A    between atoms: _265  and  _266
REMARK  101  A    between atoms: _265  and  _268
REMARK  102  A    between atoms: _268  and  _269
REMARK  103  A    between atoms: _274  and  _275
REMARK  104  A    between atoms: _278  and  _279
REMARK  105  A    between atoms: _284  and  _286
REMARK  106  A    between atoms: _286  and  _287
REMARK  107  A    between atoms: _286  and  _289
REMARK  108  A    between atoms: _289  and  _290
REMARK  109  A    between atoms: _293  and  _295
REMARK  110  A    between atoms: _295  and  _296
REMARK  111  A    between atoms: _295  and  _298
REMARK  112  A    between atoms: _298  and  _299
REMARK  113  A    between atoms: _302  and  _304
REMARK  114  A    between atoms: _304  and  _305
REMARK  115  A    between atoms: _307  and  _309
REMARK  116  A    between atoms: _309  and  _310
REMARK  117  A    between atoms: _309  and  _312
REMARK  118  A    between atoms: _312  and  _313
REMARK  119  A    between atoms: _313  and  _314
REMARK  120  A    between atoms: _314  and  _315
REMARK  121  A    between atoms: _325  and  _326
REMARK  122  A    between atoms: _331  and  _333
REMARK  123  A    between atoms: _333  and  _334
REMARK  124  A    between atoms: _333  and  _336
REMARK  125  A    between atoms: _336  and  _337
REMARK  126  A    between atoms: _340  and  _342
REMARK  127  A    between atoms: _342  and  _343
REMARK  128  A    between atoms: _342  and  _345
REMARK  129  A    between atoms: _348  and  _350
REMARK  130  A    between atoms: _350  and  _351
REMARK  131  A    between atoms: _350  and  _353
REMARK  132  A    between atoms: _353  and  _354
REMARK  133  A    between atoms: _357  and  _359
REMARK  134  A    between atoms: _359  and  _360
REMARK  135  A    between atoms: _359  and  _362
REMARK  136  A    between atoms: _362  and  _363
REMARK  137  A    between atoms: _366  and  _368
REMARK  138  A    between atoms: _368  and  _369
REMARK  139  A    between atoms: _371  and  _373
REMARK  140  A    between atoms: _373  and  _374
REMARK  141  A    between atoms: _377  and  _379
REMARK  142  A    between atoms: _379  and  _380
REMARK  143  A    between atoms: _379  and  _382
REMARK  144  A    between atoms: _382  and  _383
REMARK  145  A    between atoms: _383  and  _384
REMARK  146  A    between atoms: _389  and  _391
REMARK  147  A    between atoms: _391  and  _392
REMARK  148  A    between atoms: _391  and  _394
REMARK  149  A    between atoms: _394  and  _395
REMARK  150  A    between atoms: _400  and  _402
REMARK  151  A    between atoms: _402  and  _403
REMARK  152  A    between atoms: _402  and  _405
REMARK  153  A    between atoms: _405  and  _406
REMARK  154  A    between atoms: _408  and  _410
REMARK  155  A    between atoms: _410  and  _411
REMARK  156  A    between atoms: _410  and  _413
REMARK  157  A    between atoms: _416  and  _418
REMARK  158  A    between atoms: _418  and  _419
REMARK  159  A    between atoms: _418  and  _421
REMARK  160  A    between atoms: _421  and  _422
REMARK  161  A    between atoms: _424  and  _426
REMARK  162  A    between atoms: _426  and  _427
REMARK  163  A    between atoms: _430  and  _432
REMARK  164  A    between atoms: _432  and  _433
REMARK  165  A    between atoms: _432  and  _435
REMARK  166  A    between atoms: _435  and  _436
REMARK  167  A    between atoms: _446  and  _448
REMARK  168  A    between atoms: _448  and  _449
REMARK  169  A    between atoms: _448  and  _451
REMARK  170  A    between atoms: _454  and  _456
REMARK  171  A    between atoms: _456  and  _457
REMARK  172  A    between atoms: _456  and  _459
REMARK  173  A    between atoms: _459  and  _460
REMARK  174  A    between atoms: _460  and  _461
REMARK  175  A    between atoms: _466  and  _468
REMARK  176  A    between atoms: _468  and  _469
REMARK  177  A    between atoms: _471  and  _473
REMARK  178  A    between atoms: _473  and  _474
REMARK  179  A    between atoms: _477  and  _479
REMARK  180  A    between atoms: _479  and  _480
REMARK  181  A    between atoms: _479  and  _482
REMARK  182  A    between atoms: _482  and  _483
REMARK  183  A    between atoms: _486  and  _488
REMARK  184  A    between atoms: _488  and  _489
REMARK  185  A    between atoms: _491  and  _493
REMARK  186  A    between atoms: _493  and  _494
REMARK  187  A    between atoms: _496  and  _498
REMARK  188  A    between atoms: _498  and  _499
REMARK  189  A    between atoms: _498  and  _501
REMARK  190  A    between atoms: _501  and  _502
REMARK  191  A    between atoms: _502  and  _503
REMARK  192  A    between atoms: _503  and  _504
REMARK  193  A    between atoms: _504  and  _505
REMARK  194  A    between atoms: _509  and  _511
REMARK  195  A    between atoms: _511  and  _512
REMARK  196  A    between atoms: _511  and  _514
REMARK  197  A    between atoms: _514  and  _515
REMARK  198  A    between atoms: _515  and  _516
REMARK  199  A    between atoms: _516  and  _517
REMARK  200  A    between atoms: _526  and  _528
REMARK  201  A    between atoms: _528  and  _529
REMARK  202  A    between atoms: _528  and  _531
REMARK  203  A    between atoms: _531  and  _532
REMARK  204  A    between atoms: _537  and  _538
REMARK  205  A    between atoms: _540  and  _542
REMARK  206  A    between atoms: _542  and  _543
REMARK  207  A    between atoms: _542  and  _545
REMARK  208  A    between atoms: _545  and  _546
REMARK  209  A    between atoms: _556  and  _558
REMARK  210  A    between atoms: _558  and  _559
REMARK  211  A    between atoms: _558  and  _561
REMARK  212  A    between atoms: _561  and  _562
REMARK  213  A    between atoms: _564  and  _566
REMARK  214  A    between atoms: _566  and  _567
REMARK  215  A    between atoms: _566  and  _569
REMARK  216  A    between atoms: _569  and  _570
REMARK  217  A    between atoms: _573  and  _575
REMARK  218  A    between atoms: _575  and  _576
REMARK  219  A    between atoms: _575  and  _578
REMARK  220  A    between atoms: _581  and  _583
REMARK  221  A    between atoms: _583  and  _584
REMARK  222  A    between atoms: _583  and  _586
REMARK  223  A    between atoms: _586  and  _587
REMARK  224  A    between atoms: _590  and  _592
REMARK  225  A    between atoms: _592  and  _593
REMARK  226  A    between atoms: _592  and  _595
REMARK  227  A    between atoms: _598  and  _599
REMARK  228  A    between atoms: _604  and  _606
REMARK  229  A    between atoms: _606  and  _607
REMARK  230  A    between atoms: _606  and  _609
REMARK  231  A    between atoms: _609  and  _610
REMARK  232  A    between atoms: _615  and  _616
REMARK  233  A    between atoms: _619  and  _620
REMARK  234  A    between atoms: _625  and  _627
REMARK  235  A    between atoms: _627  and  _628
REMARK  236  A    between atoms: _627  and  _630
REMARK  237  A    between atoms: _630  and  _631
REMARK  238  A    between atoms: _634  and  _636
REMARK  239  A    between atoms: _636  and  _637
REMARK  240  A    between atoms: _636  and  _639
REMARK  241  A    between atoms: _639  and  _640
REMARK  242  A    between atoms: _643  and  _645
REMARK  243  A    between atoms: _645  and  _646
REMARK  244  A    between atoms: _648  and  _650
REMARK  245  A    between atoms: _650  and  _651
REMARK  246  A    between atoms: _650  and  _653
REMARK  247  A    between atoms: _653  and  _654
REMARK  248  A    between atoms: _654  and  _655
REMARK  249  A    between atoms: _655  and  _656
REMARK  250  A    between atoms: _665  and  _667
REMARK  251  A    between atoms: _667  and  _668
REMARK  252  A    between atoms: _667  and  _670
REMARK  253  A    between atoms: _670  and  _671
REMARK                            x       y       z     vdW  Elec       q    Type
REMARK                         _______ _______ _______ _____ _____    ______ ____
ROOT
ATOM      1  O   HOH     1       1.186  -3.935  24.199  0.00  0.00    +0.000 OA
ENDROOT
TORSDOF 0
REMARK  Name = ../refined-set-2016/3slz/3slz_pocket.pdb
REMARK  253 active torsions:
REMARK  status: ('A' for Active; 'I' for Inactive)
REMARK    1  A    between atoms: _2  and  _3
REMARK    2  A    between atoms: _9  and  _10
REMARK    3  A    between atoms: _15  and  _17
REMARK    4  A    between atoms: _17  and  _18
REMARK    5  A    between atoms: _17  and  _20
REMARK    6  A    between atoms: _20  and  _21
REMARK    7  A    between atoms: _24  and  _26
REMARK    8  A    between atoms: _26  and  _27
REMARK    9  A    between atoms: _26  and  _29
REMARK   10  A    between atoms: _32  and  _34
REMARK   11  A    between atoms: _34  and  _35
REMARK   12  A    between atoms: _34  and  _37
REMARK   13  A    between atoms: _37  and  _38
REMARK   14  A    between atoms: _41  and  _43
REMARK   15  A    between atoms: _43  and  _44
REMARK   16  A    between atoms: _43  and  _46
REMARK   17  A    between atoms: _46  and  _47
REMARK   18  A    between atoms: _50  and  _52
REMARK   19  A    between atoms: _52  and  _53
REMARK   20  A    between atoms: _55  and  _57
REMARK   21  A    between atoms: _57  and  _58
REMARK   22  A    between atoms: _61  and  _63
REMARK   23  A    between atoms: _63  and  _64
REMARK   24  A    between atoms: _63  and  _66
REMARK   25  A    between atoms: _66  and  _67
REMARK   26  A    between atoms: _67  and  _68
REMARK   27  A    between atoms: _73  and  _75
REMARK   28  A    between atoms: _75  and  _76
REMARK   29  A    between atoms: _75  and  _78
REMARK   30  A    between atoms: _78  and  _79
REMARK   31  A    between atoms: _84  and  _86
REMARK   32  A    between atoms: _86  and  _87
REMARK   33  A    between atoms: _86  and  _89
REMARK   34  A    between atoms: _89  and  _90
REMARK   35  A    between atoms: _92  and  _94
REMARK   36  A    between atoms: _94  and  _95
REMARK   37  A    between atoms: _94  and  _97
REMARK   38  A    between atoms: _100  and  _102
REMARK   39  A    between atoms: _102  and  _103
REMARK   40  A    between atoms: _102  and  _105
REMARK   41  A    between atoms: _105  and  _106
REMARK   42  A    between atoms: _108  and  _110
REMARK   43  A    between atoms: _110  and  _111
REMARK   44  A    between atoms: _114  and  _116
REMARK   45  A    between atoms: _116  and  _117
REMARK   46  A    between atoms: _116  and  _119
REMARK   47  A    between atoms: _119  and  _120
REMARK   48  A    between atoms: _130  and  _132
REMARK   49  A    between atoms: _132  and  _133
REMARK   50  A    between atoms: _132  and  _135
REMARK   51  A    between atoms: _138  and  _140
REMARK   52  A    between atoms: _140  and  _141
REMARK   53  A    between atoms: _140  and  _143
REMARK   54  A    between atoms: _143  and  _144
REMARK   55  A    between atoms: _144  and  _145
REMARK   56  A    between atoms: _150  and  _152
REMARK   57  A    between atoms: _152  and  _153
REMARK   58  A    between atoms: _155  and  _157
REMARK   59  A    between atoms: _157  and  _158
REMARK   60  A    between atoms: _161  and  _163
REMARK   61  A    between atoms: _163  and  _164
REMARK   62  A    between atoms: _163  and  _166
REMARK   63  A    between atoms: _166  and  _167
REMARK   64  A    between atoms: _170  and  _172
REMARK   65  A    between atoms: _172  and  _173
REMARK   66  A    between atoms: _175  and  _177
REMARK   67  A    between atoms: _177  and  _178
REMARK   68  A    between atoms: _180  and  _182
REMARK   69  A    between atoms: _182  and  _183
REMARK   70  A    between atoms: _182  and  _185
REMARK   71  A    between atoms: _185  and  _186
REMARK   72  A    between atoms: _186  and  _187
REMARK   73  A    between atoms: _187  and  _188
REMARK   74  A    between atoms: _188  and  _189
REMARK   75  A    between atoms: _193  and  _195
REMARK   76  A    between atoms: _195  and  _196
REMARK   77  A    between atoms: _195  and  _198
REMARK   78  A    between atoms: _198  and  _199
REMARK   79  A    between atoms: _204  and  _205
REMARK   80  A    between atoms: _207  and  _209
REMARK   81  A    between atoms: _209  and  _210
REMARK   82  A    between atoms: _209  and  _212
REMARK   83  A    between atoms: _212  and  _213
REMARK   84  A    between atoms: _223  and  _225
REMARK   85  A    between atoms: _225  and  _226
REMARK   86  A    between atoms: _225  and  _228
REMARK   87  A    between atoms: _228  and  _229
REMARK   88  A    between atoms: _232  and  _234
REMARK   89  A    between atoms: _234  and  _235
REMARK   90  A    between atoms: _234  and  _237
REMARK   91  A    between atoms: _240  and  _242
REMARK   92  A    between atoms: _242  and  _243
REMARK   93  A    between atoms: _242  and  _245
REMARK   94  A    between atoms: _245  and  _246
REMARK   95  A    between atoms: _249  and  _251
REMARK   96  A    between atoms: _251  and  _252
REMARK   97  A    between atoms: _251  and  _254
REMARK   98  A    between atoms: _257  and  _258
REMARK   99  A    between atoms: _263  and  _265
REMARK  100  A    between atoms: _265  and  _266
REMARK  101  A    between atoms: _265  and  _268
REMARK  102  A    between atoms: _268  and  _269
REMARK  103  A    between atoms: _274  and  _275
REMARK  104  A    between atoms: _278  and  _279
REMARK  105  A    between atoms: _284  and  _286
REMARK  106  A    between atoms: _286  and  _287
REMARK  107  A    between atoms: _286  and  _289
REMARK  108  A    between atoms: _289  and  _290
REMARK  109  A    between atoms: _293  and  _295
REMARK  110  A    between atoms: _295  and  _296
REMARK  111  A    between atoms: _295  and  _298
REMARK  112  A    between atoms: _298  and  _299
REMARK  113  A    between atoms: _302  and  _304
REMARK  114  A    between atoms: _304  and  _305
REMARK  115  A    between atoms: _307  and  _309
REMARK  116  A    between atoms: _309  and  _310
REMARK  117  A    between atoms: _309  and  _312
REMARK  118  A    between atoms: _312  and  _313
REMARK  119  A    between atoms: _313  and  _314
REMARK  120  A    between atoms: _314  and  _315
REMARK  121  A    between atoms: _325  and  _326
REMARK  122  A    between atoms: _331  and  _333
REMARK  123  A    between atoms: _333  and  _334
REMARK  124  A    between atoms: _333  and  _336
REMARK  125  A    between atoms: _336  and  _337
REMARK  126  A    between atoms: _340  and  _342
REMARK  127  A    between atoms: _342  and  _343
REMARK  128  A    between atoms: _342  and  _345
REMARK  129  A    between atoms: _348  and  _350
REMARK  130  A    between atoms: _350  and  _351
REMARK  131  A    between atoms: _350  and  _353
REMARK  132  A    between atoms: _353  and  _354
REMARK  133  A    between atoms: _357  and  _359
REMARK  134  A    between atoms: _359  and  _360
REMARK  135  A    between atoms: _359  and  _362
REMARK  136  A    between atoms: _362  and  _363
REMARK  137  A    between atoms: _366  and  _368
REMARK  138  A    between atoms: _368  and  _369
REMARK  139  A    between atoms: _371  and  _373
REMARK  140  A    between atoms: _373  and  _374
REMARK  141  A    between atoms: _377  and  _379
REMARK  142  A    between atoms: _379  and  _380
REMARK  143  A    between atoms: _379  and  _382
REMARK  144  A    between atoms: _382  and  _383
REMARK  145  A    between atoms: _383  and  _384
REMARK  146  A    between atoms: _389  and  _391
REMARK  147  A    between atoms: _391  and  _392
REMARK  148  A    between atoms: _391  and  _394
REMARK  149  A    between atoms: _394  and  _395
REMARK  150  A    between atoms: _400  and  _402
REMARK  151  A    between atoms: _402  and  _403
REMARK  152  A    between atoms: _402  and  _405
REMARK  153  A    between atoms: _405  and  _406
REMARK  154  A    between atoms: _408  and  _410
REMARK  155  A    between atoms: _410  and  _411
REMARK  156  A    between atoms: _410  and  _413
REMARK  157  A    between atoms: _416  and  _418
REMARK  158  A    between atoms: _418  and  _419
REMARK  159  A    between atoms: _418  and  _421
REMARK  160  A    between atoms: _421  and  _422
REMARK  161  A    between atoms: _424  and  _426
REMARK  162  A    between atoms: _426  and  _427
REMARK  163  A    between atoms: _430  and  _432
REMARK  164  A    between atoms: _432  and  _433
REMARK  165  A    between atoms: _432  and  _435
REMARK  166  A    between atoms: _435  and  _436
REMARK  167  A    between atoms: _446  and  _448
REMARK  168  A    between atoms: _448  and  _449
REMARK  169  A    between atoms: _448  and  _451
REMARK  170  A    between atoms: _454  and  _456
REMARK  171  A    between atoms: _456  and  _457
REMARK  172  A    between atoms: _456  and  _459
REMARK  173  A    between atoms: _459  and  _460
REMARK  174  A    between atoms: _460  and  _461
REMARK  175  A    between atoms: _466  and  _468
REMARK  176  A    between atoms: _468  and  _469
REMARK  177  A    between atoms: _471  and  _473
REMARK  178  A    between atoms: _473  and  _474
REMARK  179  A    between atoms: _477  and  _479
REMARK  180  A    between atoms: _479  and  _480
REMARK  181  A    between atoms: _479  and  _482
REMARK  182  A    between atoms: _482  and  _483
REMARK  183  A    between atoms: _486  and  _488
REMARK  184  A    between atoms: _488  and  _489
REMARK  185  A    between atoms: _491  and  _493
REMARK  186  A    between atoms: _493  and  _494
REMARK  187  A    between atoms: _496  and  _498
REMARK  188  A    between atoms: _498  and  _499
REMARK  189  A    between atoms: _498  and  _501
REMARK  190  A    between atoms: _501  and  _502
REMARK  191  A    between atoms: _502  and  _503
REMARK  192  A    between atoms: _503  and  _504
REMARK  193  A    between atoms: _504  and  _505
REMARK  194  A    between atoms: _509  and  _511
REMARK  195  A    between atoms: _511  and  _512
REMARK  196  A    between atoms: _511  and  _514
REMARK  197  A    between atoms: _514  and  _515
REMARK  198  A    between atoms: _515  and  _516
REMARK  199  A    between atoms: _516  and  _517
REMARK  200  A    between atoms: _526  and  _528
REMARK  201  A    between atoms: _528  and  _529
REMARK  202  A    between atoms: _528  and  _531
REMARK  203  A    between atoms: _531  and  _532
REMARK  204  A    between atoms: _537  and  _538
REMARK  205  A    between atoms: _540  and  _542
REMARK  206  A    between atoms: _542  and  _543
REMARK  207  A    between atoms: _542  and  _545
REMARK  208  A    between atoms: _545  and  _546
REMARK  209  A    between atoms: _556  and  _558
REMARK  210  A    between atoms: _558  and  _559
REMARK  211  A    between atoms: _558  and  _561
REMARK  212  A    between atoms: _561  and  _562
REMARK  213  A    between atoms: _564  and  _566
REMARK  214  A    between atoms: _566  and  _567
REMARK  215  A    between atoms: _566  and  _569
REMARK  216  A    between atoms: _569  and  _570
REMARK  217  A    between atoms: _573  and  _575
REMARK  218  A    between atoms: _575  and  _576
REMARK  219  A    between atoms: _575  and  _578
REMARK  220  A    between atoms: _581  and  _583
REMARK  221  A    between atoms: _583  and  _584
REMARK  222  A    between atoms: _583  and  _586
REMARK  223  A    between atoms: _586  and  _587
REMARK  224  A    between atoms: _590  and  _592
REMARK  225  A    between atoms: _592  and  _593
REMARK  226  A    between atoms: _592  and  _595
REMARK  227  A    between atoms: _598  and  _599
REMARK  228  A    between atoms: _604  and  _606
REMARK  229  A    between atoms: _606  and  _607
REMARK  230  A    between atoms: _606  and  _609
REMARK  231  A    between atoms: _609  and  _610
REMARK  232  A    between atoms: _615  and  _616
REMARK  233  A    between atoms: _619  and  _620
REMARK  234  A    between atoms: _625  and  _627
REMARK  235  A    between atoms: _627  and  _628
REMARK  236  A    between atoms: _627  and  _630
REMARK  237  A    between atoms: _630  and  _631
REMARK  238  A    between atoms: _634  and  _636
REMARK  239  A    between atoms: _636  and  _637
REMARK  240  A    between atoms: _636  and  _639
REMARK  241  A    between atoms: _639  and  _640
REMARK  242  A    between atoms: _643  and  _645
REMARK  243  A    between atoms: _645  and  _646
REMARK  244  A    between atoms: _648  and  _650
REMARK  245  A    between atoms: _650  and  _651
REMARK  246  A    between atoms: _650  and  _653
REMARK  247  A    between atoms: _653  and  _654
REMARK  248  A    between atoms: _654  and  _655
REMARK  249  A    between atoms: _655  and  _656
REMARK  250  A    between atoms: _665  and  _667
REMARK  251  A    between atoms: _667  and  _668
REMARK  252  A    between atoms: _667  and  _670
REMARK  253  A    between atoms: _670  and  _671
REMARK                            x       y       z     vdW  Elec       q    Type
REMARK                         _______ _______ _______ _____ _____    ______ ____
ROOT
ATOM      1  O   HOH     1       5.034  -4.687  15.364  0.00  0.00    +0.000 OA
ENDROOT
TORSDOF 0
REMARK  Name = ../refined-set-2016/3slz/3slz_pocket.pdb
REMARK  253 active torsions:
REMARK  status: ('A' for Active; 'I' for Inactive)
REMARK    1  A    between atoms: _2  and  _3
REMARK    2  A    between atoms: _9  and  _10
REMARK    3  A    between atoms: _15  and  _17
REMARK    4  A    between atoms: _17  and  _18
REMARK    5  A    between atoms: _17  and  _20
REMARK    6  A    between atoms: _20  and  _21
REMARK    7  A    between atoms: _24  and  _26
REMARK    8  A    between atoms: _26  and  _27
REMARK    9  A    between atoms: _26  and  _29
REMARK   10  A    between atoms: _32  and  _34
REMARK   11  A    between atoms: _34  and  _35
REMARK   12  A    between atoms: _34  and  _37
REMARK   13  A    between atoms: _37  and  _38
REMARK   14  A    between atoms: _41  and  _43
REMARK   15  A    between atoms: _43  and  _44
REMARK   16  A    between atoms: _43  and  _46
REMARK   17  A    between atoms: _46  and  _47
REMARK   18  A    between atoms: _50  and  _52
REMARK   19  A    between atoms: _52  and  _53
REMARK   20  A    between atoms: _55  and  _57
REMARK   21  A    between atoms: _57  and  _58
REMARK   22  A    between atoms: _61  and  _63
REMARK   23  A    between atoms: _63  and  _64
REMARK   24  A    between atoms: _63  and  _66
REMARK   25  A    between atoms: _66  and  _67
REMARK   26  A    between atoms: _67  and  _68
REMARK   27  A    between atoms: _73  and  _75
REMARK   28  A    between atoms: _75  and  _76
REMARK   29  A    between atoms: _75  and  _78
REMARK   30  A    between atoms: _78  and  _79
REMARK   31  A    between atoms: _84  and  _86
REMARK   32  A    between atoms: _86  and  _87
REMARK   33  A    between atoms: _86  and  _89
REMARK   34  A    between atoms: _89  and  _90
REMARK   35  A    between atoms: _92  and  _94
REMARK   36  A    between atoms: _94  and  _95
REMARK   37  A    between atoms: _94  and  _97
REMARK   38  A    between atoms: _100  and  _102
REMARK   39  A    between atoms: _102  and  _103
REMARK   40  A    between atoms: _102  and  _105
REMARK   41  A    between atoms: _105  and  _106
REMARK   42  A    between atoms: _108  and  _110
REMARK   43  A    between atoms: _110  and  _111
REMARK   44  A    between atoms: _114  and  _116
REMARK   45  A    between atoms: _116  and  _117
REMARK   46  A    between atoms: _116  and  _119
REMARK   47  A    between atoms: _119  and  _120
REMARK   48  A    between atoms: _130  and  _132
REMARK   49  A    between atoms: _132  and  _133
REMARK   50  A    between atoms: _132  and  _135
REMARK   51  A    between atoms: _138  and  _140
REMARK   52  A    between atoms: _140  and  _141
REMARK   53  A    between atoms: _140  and  _143
REMARK   54  A    between atoms: _143  and  _144
REMARK   55  A    between atoms: _144  and  _145
REMARK   56  A    between atoms: _150  and  _152
REMARK   57  A    between atoms: _152  and  _153
REMARK   58  A    between atoms: _155  and  _157
REMARK   59  A    between atoms: _157  and  _158
REMARK   60  A    between atoms: _161  and  _163
REMARK   61  A    between atoms: _163  and  _164
REMARK   62  A    between atoms: _163  and  _166
REMARK   63  A    between atoms: _166  and  _167
REMARK   64  A    between atoms: _170  and  _172
REMARK   65  A    between atoms: _172  and  _173
REMARK   66  A    between atoms: _175  and  _177
REMARK   67  A    between atoms: _177  and  _178
REMARK   68  A    between atoms: _180  and  _182
REMARK   69  A    between atoms: _182  and  _183
REMARK   70  A    between atoms: _182  and  _185
REMARK   71  A    between atoms: _185  and  _186
REMARK   72  A    between atoms: _186  and  _187
REMARK   73  A    between atoms: _187  and  _188
REMARK   74  A    between atoms: _188  and  _189
REMARK   75  A    between atoms: _193  and  _195
REMARK   76  A    between atoms: _195  and  _196
REMARK   77  A    between atoms: _195  and  _198
REMARK   78  A    between atoms: _198  and  _199
REMARK   79  A    between atoms: _204  and  _205
REMARK   80  A    between atoms: _207  and  _209
REMARK   81  A    between atoms: _209  and  _210
REMARK   82  A    between atoms: _209  and  _212
REMARK   83  A    between atoms: _212  and  _213
REMARK   84  A    between atoms: _223  and  _225
REMARK   85  A    between atoms: _225  and  _226
REMARK   86  A    between atoms: _225  and  _228
REMARK   87  A    between atoms: _228  and  _229
REMARK   88  A    between atoms: _232  and  _234
REMARK   89  A    between atoms: _234  and  _235
REMARK   90  A    between atoms: _234  and  _237
REMARK   91  A    between atoms: _240  and  _242
REMARK   92  A    between atoms: _242  and  _243
REMARK   93  A    between atoms: _242  and  _245
REMARK   94  A    between atoms: _245  and  _246
REMARK   95  A    between atoms: _249  and  _251
REMARK   96  A    between atoms: _251  and  _252
REMARK   97  A    between atoms: _251  and  _254
REMARK   98  A    between atoms: _257  and  _258
REMARK   99  A    between atoms: _263  and  _265
REMARK  100  A    between atoms: _265  and  _266
REMARK  101  A    between atoms: _265  and  _268
REMARK  102  A    between atoms: _268  and  _269
REMARK  103  A    between atoms: _274  and  _275
REMARK  104  A    between atoms: _278  and  _279
REMARK  105  A    between atoms: _284  and  _286
REMARK  106  A    between atoms: _286  and  _287
REMARK  107  A    between atoms: _286  and  _289
REMARK  108  A    between atoms: _289  and  _290
REMARK  109  A    between atoms: _293  and  _295
REMARK  110  A    between atoms: _295  and  _296
REMARK  111  A    between atoms: _295  and  _298
REMARK  112  A    between atoms: _298  and  _299
REMARK  113  A    between atoms: _302  and  _304
REMARK  114  A    between atoms: _304  and  _305
REMARK  115  A    between atoms: _307  and  _309
REMARK  116  A    between atoms: _309  and  _310
REMARK  117  A    between atoms: _309  and  _312
REMARK  118  A    between atoms: _312  and  _313
REMARK  119  A    between atoms: _313  and  _314
REMARK  120  A    between atoms: _314  and  _315
REMARK  121  A    between atoms: _325  and  _326
REMARK  122  A    between atoms: _331  and  _333
REMARK  123  A    between atoms: _333  and  _334
REMARK  124  A    between atoms: _333  and  _336
REMARK  125  A    between atoms: _336  and  _337
REMARK  126  A    between atoms: _340  and  _342
REMARK  127  A    between atoms: _342  and  _343
REMARK  128  A    between atoms: _342  and  _345
REMARK  129  A    between atoms: _348  and  _350
REMARK  130  A    between atoms: _350  and  _351
REMARK  131  A    between atoms: _350  and  _353
REMARK  132  A    between atoms: _353  and  _354
REMARK  133  A    between atoms: _357  and  _359
REMARK  134  A    between atoms: _359  and  _360
REMARK  135  A    between atoms: _359  and  _362
REMARK  136  A    between atoms: _362  and  _363
REMARK  137  A    between atoms: _366  and  _368
REMARK  138  A    between atoms: _368  and  _369
REMARK  139  A    between atoms: _371  and  _373
REMARK  140  A    between atoms: _373  and  _374
REMARK  141  A    between atoms: _377  and  _379
REMARK  142  A    between atoms: _379  and  _380
REMARK  143  A    between atoms: _379  and  _382
REMARK  144  A    between atoms: _382  and  _383
REMARK  145  A    between atoms: _383  and  _384
REMARK  146  A    between atoms: _389  and  _391
REMARK  147  A    between atoms: _391  and  _392
REMARK  148  A    between atoms: _391  and  _394
REMARK  149  A    between atoms: _394  and  _395
REMARK  150  A    between atoms: _400  and  _402
REMARK  151  A    between atoms: _402  and  _403
REMARK  152  A    between atoms: _402  and  _405
REMARK  153  A    between atoms: _405  and  _406
REMARK  154  A    between atoms: _408  and  _410
REMARK  155  A    between atoms: _410  and  _411
REMARK  156  A    between atoms: _410  and  _413
REMARK  157  A    between atoms: _416  and  _418
REMARK  158  A    between atoms: _418  and  _419
REMARK  159  A    between atoms: _418  and  _421
REMARK  160  A    between atoms: _421  and  _422
REMARK  161  A    between atoms: _424  and  _426
REMARK  162  A    between atoms: _426  and  _427
REMARK  163  A    between atoms: _430  and  _432
REMARK  164  A    between atoms: _432  and  _433
REMARK  165  A    between atoms: _432  and  _435
REMARK  166  A    between atoms: _435  and  _436
REMARK  167  A    between atoms: _446  and  _448
REMARK  168  A    between atoms: _448  and  _449
REMARK  169  A    between atoms: _448  and  _451
REMARK  170  A    between atoms: _454  and  _456
REMARK  171  A    between atoms: _456  and  _457
REMARK  172  A    between atoms: _456  and  _459
REMARK  173  A    between atoms: _459  and  _460
REMARK  174  A    between atoms: _460  and  _461
REMARK  175  A    between atoms: _466  and  _468
REMARK  176  A    between atoms: _468  and  _469
REMARK  177  A    between atoms: _471  and  _473
REMARK  178  A    between atoms: _473  and  _474
REMARK  179  A    between atoms: _477  and  _479
REMARK  180  A    between atoms: _479  and  _480
REMARK  181  A    between atoms: _479  and  _482
REMARK  182  A    between atoms: _482  and  _483
REMARK  183  A    between atoms: _486  and  _488
REMARK  184  A    between atoms: _488  and  _489
REMARK  185  A    between atoms: _491  and  _493
REMARK  186  A    between atoms: _493  and  _494
REMARK  187  A    between atoms: _496  and  _498
REMARK  188  A    between atoms: _498  and  _499
REMARK  189  A    between atoms: _498  and  _501
REMARK  190  A    between atoms: _501  and  _502
REMARK  191  A    between atoms: _502  and  _503
REMARK  192  A    between atoms: _503  and  _504
REMARK  193  A    between atoms: _504  and  _505
REMARK  194  A    between atoms: _509  and  _511
REMARK  195  A    between atoms: _511  and  _512
REMARK  196  A    between atoms: _511  and  _514
REMARK  197  A    between atoms: _514  and  _515
REMARK  198  A    between atoms: _515  and  _516
REMARK  199  A    between atoms: _516  and  _517
REMARK  200  A    between atoms: _526  and  _528
REMARK  201  A    between atoms: _528  and  _529
REMARK  202  A    between atoms: _528  and  _531
REMARK  203  A    between atoms: _531  and  _532
REMARK  204  A    between atoms: _537  and  _538
REMARK  205  A    between atoms: _540  and  _542
REMARK  206  A    between atoms: _542  and  _543
REMARK  207  A    between atoms: _542  and  _545
REMARK  208  A    between atoms: _545  and  _546
REMARK  209  A    between atoms: _556  and  _558
REMARK  210  A    between atoms: _558  and  _559
REMARK  211  A    between atoms: _558  and  _561
REMARK  212  A    between atoms: _561  and  _562
REMARK  213  A    between atoms: _564  and  _566
REMARK  214  A    between atoms: _566  and  _567
REMARK  215  A    between atoms: _566  and  _569
REMARK  216  A    between atoms: _569  and  _570
REMARK  217  A    between atoms: _573  and  _575
REMARK  218  A    between atoms: _575  and  _576
REMARK  219  A    between atoms: _575  and  _578
REMARK  220  A    between atoms: _581  and  _583
REMARK  221  A    between atoms: _583  and  _584
REMARK  222  A    between atoms: _583  and  _586
REMARK  223  A    between atoms: _586  and  _587
REMARK  224  A    between atoms: _590  and  _592
REMARK  225  A    between atoms: _592  and  _593
REMARK  226  A    between atoms: _592  and  _595
REMARK  227  A    between atoms: _598  and  _599
REMARK  228  A    between atoms: _604  and  _606
REMARK  229  A    between atoms: _606  and  _607
REMARK  230  A    between atoms: _606  and  _609
REMARK  231  A    between atoms: _609  and  _610
REMARK  232  A    between atoms: _615  and  _616
REMARK  233  A    between atoms: _619  and  _620
REMARK  234  A    between atoms: _625  and  _627
REMARK  235  A    between atoms: _627  and  _628
REMARK  236  A    between atoms: _627  and  _630
REMARK  237  A    between atoms: _630  and  _631
REMARK  238  A    between atoms: _634  and  _636
REMARK  239  A    between atoms: _636  and  _637
REMARK  240  A    between atoms: _636  and  _639
REMARK  241  A    between atoms: _639  and  _640
REMARK  242  A    between atoms: _643  and  _645
REMARK  243  A    between atoms: _645  and  _646
REMARK  244  A    between atoms: _648  and  _650
REMARK  245  A    between atoms: _650  and  _651
REMARK  246  A    between atoms: _650  and  _653
REMARK  247  A    between atoms: _653  and  _654
REMARK  248  A    between atoms: _654  and  _655
REMARK  249  A    between atoms: _655  and  _656
REMARK  250  A    between atoms: _665  and  _667
REMARK  251  A    between atoms: _667  and  _668
REMARK  252  A    between atoms: _667  and  _670
REMARK  253  A    between atoms: _670  and  _671
REMARK                            x       y       z     vdW  Elec       q    Type
REMARK                         _______ _______ _______ _____ _____    ______ ____
ROOT
ATOM      1  O   HOH     1       5.106   0.737  21.236  0.00  0.00    +0.000 OA
ENDROOT
TORSDOF 0
REMARK  Name = ../refined-set-2016/3slz/3slz_pocket.pdb
REMARK  253 active torsions:
REMARK  status: ('A' for Active; 'I' for Inactive)
REMARK    1  A    between atoms: _2  and  _3
REMARK    2  A    between atoms: _9  and  _10
REMARK    3  A    between atoms: _15  and  _17
REMARK    4  A    between atoms: _17  and  _18
REMARK    5  A    between atoms: _17  and  _20
REMARK    6  A    between atoms: _20  and  _21
REMARK    7  A    between atoms: _24  and  _26
REMARK    8  A    between atoms: _26  and  _27
REMARK    9  A    between atoms: _26  and  _29
REMARK   10  A    between atoms: _32  and  _34
REMARK   11  A    between atoms: _34  and  _35
REMARK   12  A    between atoms: _34  and  _37
REMARK   13  A    between atoms: _37  and  _38
REMARK   14  A    between atoms: _41  and  _43
REMARK   15  A    between atoms: _43  and  _44
REMARK   16  A    between atoms: _43  and  _46
REMARK   17  A    between atoms: _46  and  _47
REMARK   18  A    between atoms: _50  and  _52
REMARK   19  A    between atoms: _52  and  _53
REMARK   20  A    between atoms: _55  and  _57
REMARK   21  A    between atoms: _57  and  _58
REMARK   22  A    between atoms: _61  and  _63
REMARK   23  A    between atoms: _63  and  _64
REMARK   24  A    between atoms: _63  and  _66
REMARK   25  A    between atoms: _66  and  _67
REMARK   26  A    between atoms: _67  and  _68
REMARK   27  A    between atoms: _73  and  _75
REMARK   28  A    between atoms: _75  and  _76
REMARK   29  A    between atoms: _75  and  _78
REMARK   30  A    between atoms: _78  and  _79
REMARK   31  A    between atoms: _84  and  _86
REMARK   32  A    between atoms: _86  and  _87
REMARK   33  A    between atoms: _86  and  _89
REMARK   34  A    between atoms: _89  and  _90
REMARK   35  A    between atoms: _92  and  _94
REMARK   36  A    between atoms: _94  and  _95
REMARK   37  A    between atoms: _94  and  _97
REMARK   38  A    between atoms: _100  and  _102
REMARK   39  A    between atoms: _102  and  _103
REMARK   40  A    between atoms: _102  and  _105
REMARK   41  A    between atoms: _105  and  _106
REMARK   42  A    between atoms: _108  and  _110
REMARK   43  A    between atoms: _110  and  _111
REMARK   44  A    between atoms: _114  and  _116
REMARK   45  A    between atoms: _116  and  _117
REMARK   46  A    between atoms: _116  and  _119
REMARK   47  A    between atoms: _119  and  _120
REMARK   48  A    between atoms: _130  and  _132
REMARK   49  A    between atoms: _132  and  _133
REMARK   50  A    between atoms: _132  and  _135
REMARK   51  A    between atoms: _138  and  _140
REMARK   52  A    between atoms: _140  and  _141
REMARK   53  A    between atoms: _140  and  _143
REMARK   54  A    between atoms: _143  and  _144
REMARK   55  A    between atoms: _144  and  _145
REMARK   56  A    between atoms: _150  and  _152
REMARK   57  A    between atoms: _152  and  _153
REMARK   58  A    between atoms: _155  and  _157
REMARK   59  A    between atoms: _157  and  _158
REMARK   60  A    between atoms: _161  and  _163
REMARK   61  A    between atoms: _163  and  _164
REMARK   62  A    between atoms: _163  and  _166
REMARK   63  A    between atoms: _166  and  _167
REMARK   64  A    between atoms: _170  and  _172
REMARK   65  A    between atoms: _172  and  _173
REMARK   66  A    between atoms: _175  and  _177
REMARK   67  A    between atoms: _177  and  _178
REMARK   68  A    between atoms: _180  and  _182
REMARK   69  A    between atoms: _182  and  _183
REMARK   70  A    between atoms: _182  and  _185
REMARK   71  A    between atoms: _185  and  _186
REMARK   72  A    between atoms: _186  and  _187
REMARK   73  A    between atoms: _187  and  _188
REMARK   74  A    between atoms: _188  and  _189
REMARK   75  A    between atoms: _193  and  _195
REMARK   76  A    between atoms: _195  and  _196
REMARK   77  A    between atoms: _195  and  _198
REMARK   78  A    between atoms: _198  and  _199
REMARK   79  A    between atoms: _204  and  _205
REMARK   80  A    between atoms: _207  and  _209
REMARK   81  A    between atoms: _209  and  _210
REMARK   82  A    between atoms: _209  and  _212
REMARK   83  A    between atoms: _212  and  _213
REMARK   84  A    between atoms: _223  and  _225
REMARK   85  A    between atoms: _225  and  _226
REMARK   86  A    between atoms: _225  and  _228
REMARK   87  A    between atoms: _228  and  _229
REMARK   88  A    between atoms: _232  and  _234
REMARK   89  A    between atoms: _234  and  _235
REMARK   90  A    between atoms: _234  and  _237
REMARK   91  A    between atoms: _240  and  _242
REMARK   92  A    between atoms: _242  and  _243
REMARK   93  A    between atoms: _242  and  _245
REMARK   94  A    between atoms: _245  and  _246
REMARK   95  A    between atoms: _249  and  _251
REMARK   96  A    between atoms: _251  and  _252
REMARK   97  A    between atoms: _251  and  _254
REMARK   98  A    between atoms: _257  and  _258
REMARK   99  A    between atoms: _263  and  _265
REMARK  100  A    between atoms: _265  and  _266
REMARK  101  A    between atoms: _265  and  _268
REMARK  102  A    between atoms: _268  and  _269
REMARK  103  A    between atoms: _274  and  _275
REMARK  104  A    between atoms: _278  and  _279
REMARK  105  A    between atoms: _284  and  _286
REMARK  106  A    between atoms: _286  and  _287
REMARK  107  A    between atoms: _286  and  _289
REMARK  108  A    between atoms: _289  and  _290
REMARK  109  A    between atoms: _293  and  _295
REMARK  110  A    between atoms: _295  and  _296
REMARK  111  A    between atoms: _295  and  _298
REMARK  112  A    between atoms: _298  and  _299
REMARK  113  A    between atoms: _302  and  _304
REMARK  114  A    between atoms: _304  and  _305
REMARK  115  A    between atoms: _307  and  _309
REMARK  116  A    between atoms: _309  and  _310
REMARK  117  A    between atoms: _309  and  _312
REMARK  118  A    between atoms: _312  and  _313
REMARK  119  A    between atoms: _313  and  _314
REMARK  120  A    between atoms: _314  and  _315
REMARK  121  A    between atoms: _325  and  _326
REMARK  122  A    between atoms: _331  and  _333
REMARK  123  A    between atoms: _333  and  _334
REMARK  124  A    between atoms: _333  and  _336
REMARK  125  A    between atoms: _336  and  _337
REMARK  126  A    between atoms: _340  and  _342
REMARK  127  A    between atoms: _342  and  _343
REMARK  128  A    between atoms: _342  and  _345
REMARK  129  A    between atoms: _348  and  _350
REMARK  130  A    between atoms: _350  and  _351
REMARK  131  A    between atoms: _350  and  _353
REMARK  132  A    between atoms: _353  and  _354
REMARK  133  A    between atoms: _357  and  _359
REMARK  134  A    between atoms: _359  and  _360
REMARK  135  A    between atoms: _359  and  _362
REMARK  136  A    between atoms: _362  and  _363
REMARK  137  A    between atoms: _366  and  _368
REMARK  138  A    between atoms: _368  and  _369
REMARK  139  A    between atoms: _371  and  _373
REMARK  140  A    between atoms: _373  and  _374
REMARK  141  A    between atoms: _377  and  _379
REMARK  142  A    between atoms: _379  and  _380
REMARK  143  A    between atoms: _379  and  _382
REMARK  144  A    between atoms: _382  and  _383
REMARK  145  A    between atoms: _383  and  _384
REMARK  146  A    between atoms: _389  and  _391
REMARK  147  A    between atoms: _391  and  _392
REMARK  148  A    between atoms: _391  and  _394
REMARK  149  A    between atoms: _394  and  _395
REMARK  150  A    between atoms: _400  and  _402
REMARK  151  A    between atoms: _402  and  _403
REMARK  152  A    between atoms: _402  and  _405
REMARK  153  A    between atoms: _405  and  _406
REMARK  154  A    between atoms: _408  and  _410
REMARK  155  A    between atoms: _410  and  _411
REMARK  156  A    between atoms: _410  and  _413
REMARK  157  A    between atoms: _416  and  _418
REMARK  158  A    between atoms: _418  and  _419
REMARK  159  A    between atoms: _418  and  _421
REMARK  160  A    between atoms: _421  and  _422
REMARK  161  A    between atoms: _424  and  _426
REMARK  162  A    between atoms: _426  and  _427
REMARK  163  A    between atoms: _430  and  _432
REMARK  164  A    between atoms: _432  and  _433
REMARK  165  A    between atoms: _432  and  _435
REMARK  166  A    between atoms: _435  and  _436
REMARK  167  A    between atoms: _446  and  _448
REMARK  168  A    between atoms: _448  and  _449
REMARK  169  A    between atoms: _448  and  _451
REMARK  170  A    between atoms: _454  and  _456
REMARK  171  A    between atoms: _456  and  _457
REMARK  172  A    between atoms: _456  and  _459
REMARK  173  A    between atoms: _459  and  _460
REMARK  174  A    between atoms: _460  and  _461
REMARK  175  A    between atoms: _466  and  _468
REMARK  176  A    between atoms: _468  and  _469
REMARK  177  A    between atoms: _471  and  _473
REMARK  178  A    between atoms: _473  and  _474
REMARK  179  A    between atoms: _477  and  _479
REMARK  180  A    between atoms: _479  and  _480
REMARK  181  A    between atoms: _479  and  _482
REMARK  182  A    between atoms: _482  and  _483
REMARK  183  A    between atoms: _486  and  _488
REMARK  184  A    between atoms: _488  and  _489
REMARK  185  A    between atoms: _491  and  _493
REMARK  186  A    between atoms: _493  and  _494
REMARK  187  A    between atoms: _496  and  _498
REMARK  188  A    between atoms: _498  and  _499
REMARK  189  A    between atoms: _498  and  _501
REMARK  190  A    between atoms: _501  and  _502
REMARK  191  A    between atoms: _502  and  _503
REMARK  192  A    between atoms: _503  and  _504
REMARK  193  A    between atoms: _504  and  _505
REMARK  194  A    between atoms: _509  and  _511
REMARK  195  A    between atoms: _511  and  _512
REMARK  196  A    between atoms: _511  and  _514
REMARK  197  A    between atoms: _514  and  _515
REMARK  198  A    between atoms: _515  and  _516
REMARK  199  A    between atoms: _516  and  _517
REMARK  200  A    between atoms: _526  and  _528
REMARK  201  A    between atoms: _528  and  _529
REMARK  202  A    between atoms: _528  and  _531
REMARK  203  A    between atoms: _531  and  _532
REMARK  204  A    between atoms: _537  and  _538
REMARK  205  A    between atoms: _540  and  _542
REMARK  206  A    between atoms: _542  and  _543
REMARK  207  A    between atoms: _542  and  _545
REMARK  208  A    between atoms: _545  and  _546
REMARK  209  A    between atoms: _556  and  _558
REMARK  210  A    between atoms: _558  and  _559
REMARK  211  A    between atoms: _558  and  _561
REMARK  212  A    between atoms: _561  and  _562
REMARK  213  A    between atoms: _564  and  _566
REMARK  214  A    between atoms: _566  and  _567
REMARK  215  A    between atoms: _566  and  _569
REMARK  216  A    between atoms: _569  and  _570
REMARK  217  A    between atoms: _573  and  _575
REMARK  218  A    between atoms: _575  and  _576
REMARK  219  A    between atoms: _575  and  _578
REMARK  220  A    between atoms: _581  and  _583
REMARK  221  A    between atoms: _583  and  _584
REMARK  222  A    between atoms: _583  and  _586
REMARK  223  A    between atoms: _586  and  _587
REMARK  224  A    between atoms: _590  and  _592
REMARK  225  A    between atoms: _592  and  _593
REMARK  226  A    between atoms: _592  and  _595
REMARK  227  A    between atoms: _598  and  _599
REMARK  228  A    between atoms: _604  and  _606
REMARK  229  A    between atoms: _606  and  _607
REMARK  230  A    between atoms: _606  and  _609
REMARK  231  A    between atoms: _609  and  _610
REMARK  232  A    between atoms: _615  and  _616
REMARK  233  A    between atoms: _619  and  _620
REMARK  234  A    between atoms: _625  and  _627
REMARK  235  A    between atoms: _627  and  _628
REMARK  236  A    between atoms: _627  and  _630
REMARK  237  A    between atoms: _630  and  _631
REMARK  238  A    between atoms: _634  and  _636
REMARK  239  A    between atoms: _636  and  _637
REMARK  240  A    between atoms: _636  and  _639
REMARK  241  A    between atoms: _639  and  _640
REMARK  242  A    between atoms: _643  and  _645
REMARK  243  A    between atoms: _645  and  _646
REMARK  244  A    between atoms: _648  and  _650
REMARK  245  A    between atoms: _650  and  _651
REMARK  246  A    between atoms: _650  and  _653
REMARK  247  A    between atoms: _653  and  _654
REMARK  248  A    between atoms: _654  and  _655
REMARK  249  A    between atoms: _655  and  _656
REMARK  250  A    between atoms: _665  and  _667
REMARK  251  A    between atoms: _667  and  _668
REMARK  252  A    between atoms: _667  and  _670
REMARK  253  A    between atoms: _670  and  _671
REMARK                            x       y       z     vdW  Elec       q    Type
REMARK                         _______ _______ _______ _____ _____    ______ ____
ROOT
ATOM      1  O   HOH     1      -1.693  -0.564  27.281  0.00  0.00    +0.000 OA
ENDROOT
TORSDOF 0
REMARK  Name = ../refined-set-2016/3slz/3slz_pocket.pdb
REMARK  253 active torsions:
REMARK  status: ('A' for Active; 'I' for Inactive)
REMARK    1  A    between atoms: _2  and  _3
REMARK    2  A    between atoms: _9  and  _10
REMARK    3  A    between atoms: _15  and  _17
REMARK    4  A    between atoms: _17  and  _18
REMARK    5  A    between atoms: _17  and  _20
REMARK    6  A    between atoms: _20  and  _21
REMARK    7  A    between atoms: _24  and  _26
REMARK    8  A    between atoms: _26  and  _27
REMARK    9  A    between atoms: _26  and  _29
REMARK   10  A    between atoms: _32  and  _34
REMARK   11  A    between atoms: _34  and  _35
REMARK   12  A    between atoms: _34  and  _37
REMARK   13  A    between atoms: _37  and  _38
REMARK   14  A    between atoms: _41  and  _43
REMARK   15  A    between atoms: _43  and  _44
REMARK   16  A    between atoms: _43  and  _46
REMARK   17  A    between atoms: _46  and  _47
REMARK   18  A    between atoms: _50  and  _52
REMARK   19  A    between atoms: _52  and  _53
REMARK   20  A    between atoms: _55  and  _57
REMARK   21  A    between atoms: _57  and  _58
REMARK   22  A    between atoms: _61  and  _63
REMARK   23  A    between atoms: _63  and  _64
REMARK   24  A    between atoms: _63  and  _66
REMARK   25  A    between atoms: _66  and  _67
REMARK   26  A    between atoms: _67  and  _68
REMARK   27  A    between atoms: _73  and  _75
REMARK   28  A    between atoms: _75  and  _76
REMARK   29  A    between atoms: _75  and  _78
REMARK   30  A    between atoms: _78  and  _79
REMARK   31  A    between atoms: _84  and  _86
REMARK   32  A    between atoms: _86  and  _87
REMARK   33  A    between atoms: _86  and  _89
REMARK   34  A    between atoms: _89  and  _90
REMARK   35  A    between atoms: _92  and  _94
REMARK   36  A    between atoms: _94  and  _95
REMARK   37  A    between atoms: _94  and  _97
REMARK   38  A    between atoms: _100  and  _102
REMARK   39  A    between atoms: _102  and  _103
REMARK   40  A    between atoms: _102  and  _105
REMARK   41  A    between atoms: _105  and  _106
REMARK   42  A    between atoms: _108  and  _110
REMARK   43  A    between atoms: _110  and  _111
REMARK   44  A    between atoms: _114  and  _116
REMARK   45  A    between atoms: _116  and  _117
REMARK   46  A    between atoms: _116  and  _119
REMARK   47  A    between atoms: _119  and  _120
REMARK   48  A    between atoms: _130  and  _132
REMARK   49  A    between atoms: _132  and  _133
REMARK   50  A    between atoms: _132  and  _135
REMARK   51  A    between atoms: _138  and  _140
REMARK   52  A    between atoms: _140  and  _141
REMARK   53  A    between atoms: _140  and  _143
REMARK   54  A    between atoms: _143  and  _144
REMARK   55  A    between atoms: _144  and  _145
REMARK   56  A    between atoms: _150  and  _152
REMARK   57  A    between atoms: _152  and  _153
REMARK   58  A    between atoms: _155  and  _157
REMARK   59  A    between atoms: _157  and  _158
REMARK   60  A    between atoms: _161  and  _163
REMARK   61  A    between atoms: _163  and  _164
REMARK   62  A    between atoms: _163  and  _166
REMARK   63  A    between atoms: _166  and  _167
REMARK   64  A    between atoms: _170  and  _172
REMARK   65  A    between atoms: _172  and  _173
REMARK   66  A    between atoms: _175  and  _177
REMARK   67  A    between atoms: _177  and  _178
REMARK   68  A    between atoms: _180  and  _182
REMARK   69  A    between atoms: _182  and  _183
REMARK   70  A    between atoms: _182  and  _185
REMARK   71  A    between atoms: _185  and  _186
REMARK   72  A    between atoms: _186  and  _187
REMARK   73  A    between atoms: _187  and  _188
REMARK   74  A    between atoms: _188  and  _189
REMARK   75  A    between atoms: _193  and  _195
REMARK   76  A    between atoms: _195  and  _196
REMARK   77  A    between atoms: _195  and  _198
REMARK   78  A    between atoms: _198  and  _199
REMARK   79  A    between atoms: _204  and  _205
REMARK   80  A    between atoms: _207  and  _209
REMARK   81  A    between atoms: _209  and  _210
REMARK   82  A    between atoms: _209  and  _212
REMARK   83  A    between atoms: _212  and  _213
REMARK   84  A    between atoms: _223  and  _225
REMARK   85  A    between atoms: _225  and  _226
REMARK   86  A    between atoms: _225  and  _228
REMARK   87  A    between atoms: _228  and  _229
REMARK   88  A    between atoms: _232  and  _234
REMARK   89  A    between atoms: _234  and  _235
REMARK   90  A    between atoms: _234  and  _237
REMARK   91  A    between atoms: _240  and  _242
REMARK   92  A    between atoms: _242  and  _243
REMARK   93  A    between atoms: _242  and  _245
REMARK   94  A    between atoms: _245  and  _246
REMARK   95  A    between atoms: _249  and  _251
REMARK   96  A    between atoms: _251  and  _252
REMARK   97  A    between atoms: _251  and  _254
REMARK   98  A    between atoms: _257  and  _258
REMARK   99  A    between atoms: _263  and  _265
REMARK  100  A    between atoms: _265  and  _266
REMARK  101  A    between atoms: _265  and  _268
REMARK  102  A    between atoms: _268  and  _269
REMARK  103  A    between atoms: _274  and  _275
REMARK  104  A    between atoms: _278  and  _279
REMARK  105  A    between atoms: _284  and  _286
REMARK  106  A    between atoms: _286  and  _287
REMARK  107  A    between atoms: _286  and  _289
REMARK  108  A    between atoms: _289  and  _290
REMARK  109  A    between atoms: _293  and  _295
REMARK  110  A    between atoms: _295  and  _296
REMARK  111  A    between atoms: _295  and  _298
REMARK  112  A    between atoms: _298  and  _299
REMARK  113  A    between atoms: _302  and  _304
REMARK  114  A    between atoms: _304  and  _305
REMARK  115  A    between atoms: _307  and  _309
REMARK  116  A    between atoms: _309  and  _310
REMARK  117  A    between atoms: _309  and  _312
REMARK  118  A    between atoms: _312  and  _313
REMARK  119  A    between atoms: _313  and  _314
REMARK  120  A    between atoms: _314  and  _315
REMARK  121  A    between atoms: _325  and  _326
REMARK  122  A    between atoms: _331  and  _333
REMARK  123  A    between atoms: _333  and  _334
REMARK  124  A    between atoms: _333  and  _336
REMARK  125  A    between atoms: _336  and  _337
REMARK  126  A    between atoms: _340  and  _342
REMARK  127  A    between atoms: _342  and  _343
REMARK  128  A    between atoms: _342  and  _345
REMARK  129  A    between atoms: _348  and  _350
REMARK  130  A    between atoms: _350  and  _351
REMARK  131  A    between atoms: _350  and  _353
REMARK  132  A    between atoms: _353  and  _354
REMARK  133  A    between atoms: _357  and  _359
REMARK  134  A    between atoms: _359  and  _360
REMARK  135  A    between atoms: _359  and  _362
REMARK  136  A    between atoms: _362  and  _363
REMARK  137  A    between atoms: _366  and  _368
REMARK  138  A    between atoms: _368  and  _369
REMARK  139  A    between atoms: _371  and  _373
REMARK  140  A    between atoms: _373  and  _374
REMARK  141  A    between atoms: _377  and  _379
REMARK  142  A    between atoms: _379  and  _380
REMARK  143  A    between atoms: _379  and  _382
REMARK  144  A    between atoms: _382  and  _383
REMARK  145  A    between atoms: _383  and  _384
REMARK  146  A    between atoms: _389  and  _391
REMARK  147  A    between atoms: _391  and  _392
REMARK  148  A    between atoms: _391  and  _394
REMARK  149  A    between atoms: _394  and  _395
REMARK  150  A    between atoms: _400  and  _402
REMARK  151  A    between atoms: _402  and  _403
REMARK  152  A    between atoms: _402  and  _405
REMARK  153  A    between atoms: _405  and  _406
REMARK  154  A    between atoms: _408  and  _410
REMARK  155  A    between atoms: _410  and  _411
REMARK  156  A    between atoms: _410  and  _413
REMARK  157  A    between atoms: _416  and  _418
REMARK  158  A    between atoms: _418  and  _419
REMARK  159  A    between atoms: _418  and  _421
REMARK  160  A    between atoms: _421  and  _422
REMARK  161  A    between atoms: _424  and  _426
REMARK  162  A    between atoms: _426  and  _427
REMARK  163  A    between atoms: _430  and  _432
REMARK  164  A    between atoms: _432  and  _433
REMARK  165  A    between atoms: _432  and  _435
REMARK  166  A    between atoms: _435  and  _436
REMARK  167  A    between atoms: _446  and  _448
REMARK  168  A    between atoms: _448  and  _449
REMARK  169  A    between atoms: _448  and  _451
REMARK  170  A    between atoms: _454  and  _456
REMARK  171  A    between atoms: _456  and  _457
REMARK  172  A    between atoms: _456  and  _459
REMARK  173  A    between atoms: _459  and  _460
REMARK  174  A    between atoms: _460  and  _461
REMARK  175  A    between atoms: _466  and  _468
REMARK  176  A    between atoms: _468  and  _469
REMARK  177  A    between atoms: _471  and  _473
REMARK  178  A    between atoms: _473  and  _474
REMARK  179  A    between atoms: _477  and  _479
REMARK  180  A    between atoms: _479  and  _480
REMARK  181  A    between atoms: _479  and  _482
REMARK  182  A    between atoms: _482  and  _483
REMARK  183  A    between atoms: _486  and  _488
REMARK  184  A    between atoms: _488  and  _489
REMARK  185  A    between atoms: _491  and  _493
REMARK  186  A    between atoms: _493  and  _494
REMARK  187  A    between atoms: _496  and  _498
REMARK  188  A    between atoms: _498  and  _499
REMARK  189  A    between atoms: _498  and  _501
REMARK  190  A    between atoms: _501  and  _502
REMARK  191  A    between atoms: _502  and  _503
REMARK  192  A    between atoms: _503  and  _504
REMARK  193  A    between atoms: _504  and  _505
REMARK  194  A    between atoms: _509  and  _511
REMARK  195  A    between atoms: _511  and  _512
REMARK  196  A    between atoms: _511  and  _514
REMARK  197  A    between atoms: _514  and  _515
REMARK  198  A    between atoms: _515  and  _516
REMARK  199  A    between atoms: _516  and  _517
REMARK  200  A    between atoms: _526  and  _528
REMARK  201  A    between atoms: _528  and  _529
REMARK  202  A    between atoms: _528  and  _531
REMARK  203  A    between atoms: _531  and  _532
REMARK  204  A    between atoms: _537  and  _538
REMARK  205  A    between atoms: _540  and  _542
REMARK  206  A    between atoms: _542  and  _543
REMARK  207  A    between atoms: _542  and  _545
REMARK  208  A    between atoms: _545  and  _546
REMARK  209  A    between atoms: _556  and  _558
REMARK  210  A    between atoms: _558  and  _559
REMARK  211  A    between atoms: _558  and  _561
REMARK  212  A    between atoms: _561  and  _562
REMARK  213  A    between atoms: _564  and  _566
REMARK  214  A    between atoms: _566  and  _567
REMARK  215  A    between atoms: _566  and  _569
REMARK  216  A    between atoms: _569  and  _570
REMARK  217  A    between atoms: _573  and  _575
REMARK  218  A    between atoms: _575  and  _576
REMARK  219  A    between atoms: _575  and  _578
REMARK  220  A    between atoms: _581  and  _583
REMARK  221  A    between atoms: _583  and  _584
REMARK  222  A    between atoms: _583  and  _586
REMARK  223  A    between atoms: _586  and  _587
REMARK  224  A    between atoms: _590  and  _592
REMARK  225  A    between atoms: _592  and  _593
REMARK  226  A    between atoms: _592  and  _595
REMARK  227  A    between atoms: _598  and  _599
REMARK  228  A    between atoms: _604  and  _606
REMARK  229  A    between atoms: _606  and  _607
REMARK  230  A    between atoms: _606  and  _609
REMARK  231  A    between atoms: _609  and  _610
REMARK  232  A    between atoms: _615  and  _616
REMARK  233  A    between atoms: _619  and  _620
REMARK  234  A    between atoms: _625  and  _627
REMARK  235  A    between atoms: _627  and  _628
REMARK  236  A    between atoms: _627  and  _630
REMARK  237  A    between atoms: _630  and  _631
REMARK  238  A    between atoms: _634  and  _636
REMARK  239  A    between atoms: _636  and  _637
REMARK  240  A    between atoms: _636  and  _639
REMARK  241  A    between atoms: _639  and  _640
REMARK  242  A    between atoms: _643  and  _645
REMARK  243  A    between atoms: _645  and  _646
REMARK  244  A    between atoms: _648  and  _650
REMARK  245  A    between atoms: _650  and  _651
REMARK  246  A    between atoms: _650  and  _653
REMARK  247  A    between atoms: _653  and  _654
REMARK  248  A    between atoms: _654  and  _655
REMARK  249  A    between atoms: _655  and  _656
REMARK  250  A    between atoms: _665  and  _667
REMARK  251  A    between atoms: _667  and  _668
REMARK  252  A    between atoms: _667  and  _670
REMARK  253  A    between atoms: _670  and  _671
REMARK                            x       y       z     vdW  Elec       q    Type
REMARK                         _______ _______ _______ _____ _____    ______ ____
ROOT
ATOM      1  O   HOH     1      -2.523  -5.091  27.674  0.00  0.00    +0.000 OA
ENDROOT
TORSDOF 0
REMARK  Name = ../refined-set-2016/3slz/3slz_pocket.pdb
REMARK  253 active torsions:
REMARK  status: ('A' for Active; 'I' for Inactive)
REMARK    1  A    between atoms: _2  and  _3
REMARK    2  A    between atoms: _9  and  _10
REMARK    3  A    between atoms: _15  and  _17
REMARK    4  A    between atoms: _17  and  _18
REMARK    5  A    between atoms: _17  and  _20
REMARK    6  A    between atoms: _20  and  _21
REMARK    7  A    between atoms: _24  and  _26
REMARK    8  A    between atoms: _26  and  _27
REMARK    9  A    between atoms: _26  and  _29
REMARK   10  A    between atoms: _32  and  _34
REMARK   11  A    between atoms: _34  and  _35
REMARK   12  A    between atoms: _34  and  _37
REMARK   13  A    between atoms: _37  and  _38
REMARK   14  A    between atoms: _41  and  _43
REMARK   15  A    between atoms: _43  and  _44
REMARK   16  A    between atoms: _43  and  _46
REMARK   17  A    between atoms: _46  and  _47
REMARK   18  A    between atoms: _50  and  _52
REMARK   19  A    between atoms: _52  and  _53
REMARK   20  A    between atoms: _55  and  _57
REMARK   21  A    between atoms: _57  and  _58
REMARK   22  A    between atoms: _61  and  _63
REMARK   23  A    between atoms: _63  and  _64
REMARK   24  A    between atoms: _63  and  _66
REMARK   25  A    between atoms: _66  and  _67
REMARK   26  A    between atoms: _67  and  _68
REMARK   27  A    between atoms: _73  and  _75
REMARK   28  A    between atoms: _75  and  _76
REMARK   29  A    between atoms: _75  and  _78
REMARK   30  A    between atoms: _78  and  _79
REMARK   31  A    between atoms: _84  and  _86
REMARK   32  A    between atoms: _86  and  _87
REMARK   33  A    between atoms: _86  and  _89
REMARK   34  A    between atoms: _89  and  _90
REMARK   35  A    between atoms: _92  and  _94
REMARK   36  A    between atoms: _94  and  _95
REMARK   37  A    between atoms: _94  and  _97
REMARK   38  A    between atoms: _100  and  _102
REMARK   39  A    between atoms: _102  and  _103
REMARK   40  A    between atoms: _102  and  _105
REMARK   41  A    between atoms: _105  and  _106
REMARK   42  A    between atoms: _108  and  _110
REMARK   43  A    between atoms: _110  and  _111
REMARK   44  A    between atoms: _114  and  _116
REMARK   45  A    between atoms: _116  and  _117
REMARK   46  A    between atoms: _116  and  _119
REMARK   47  A    between atoms: _119  and  _120
REMARK   48  A    between atoms: _130  and  _132
REMARK   49  A    between atoms: _132  and  _133
REMARK   50  A    between atoms: _132  and  _135
REMARK   51  A    between atoms: _138  and  _140
REMARK   52  A    between atoms: _140  and  _141
REMARK   53  A    between atoms: _140  and  _143
REMARK   54  A    between atoms: _143  and  _144
REMARK   55  A    between atoms: _144  and  _145
REMARK   56  A    between atoms: _150  and  _152
REMARK   57  A    between atoms: _152  and  _153
REMARK   58  A    between atoms: _155  and  _157
REMARK   59  A    between atoms: _157  and  _158
REMARK   60  A    between atoms: _161  and  _163
REMARK   61  A    between atoms: _163  and  _164
REMARK   62  A    between atoms: _163  and  _166
REMARK   63  A    between atoms: _166  and  _167
REMARK   64  A    between atoms: _170  and  _172
REMARK   65  A    between atoms: _172  and  _173
REMARK   66  A    between atoms: _175  and  _177
REMARK   67  A    between atoms: _177  and  _178
REMARK   68  A    between atoms: _180  and  _182
REMARK   69  A    between atoms: _182  and  _183
REMARK   70  A    between atoms: _182  and  _185
REMARK   71  A    between atoms: _185  and  _186
REMARK   72  A    between atoms: _186  and  _187
REMARK   73  A    between atoms: _187  and  _188
REMARK   74  A    between atoms: _188  and  _189
REMARK   75  A    between atoms: _193  and  _195
REMARK   76  A    between atoms: _195  and  _196
REMARK   77  A    between atoms: _195  and  _198
REMARK   78  A    between atoms: _198  and  _199
REMARK   79  A    between atoms: _204  and  _205
REMARK   80  A    between atoms: _207  and  _209
REMARK   81  A    between atoms: _209  and  _210
REMARK   82  A    between atoms: _209  and  _212
REMARK   83  A    between atoms: _212  and  _213
REMARK   84  A    between atoms: _223  and  _225
REMARK   85  A    between atoms: _225  and  _226
REMARK   86  A    between atoms: _225  and  _228
REMARK   87  A    between atoms: _228  and  _229
REMARK   88  A    between atoms: _232  and  _234
REMARK   89  A    between atoms: _234  and  _235
REMARK   90  A    between atoms: _234  and  _237
REMARK   91  A    between atoms: _240  and  _242
REMARK   92  A    between atoms: _242  and  _243
REMARK   93  A    between atoms: _242  and  _245
REMARK   94  A    between atoms: _245  and  _246
REMARK   95  A    between atoms: _249  and  _251
REMARK   96  A    between atoms: _251  and  _252
REMARK   97  A    between atoms: _251  and  _254
REMARK   98  A    between atoms: _257  and  _258
REMARK   99  A    between atoms: _263  and  _265
REMARK  100  A    between atoms: _265  and  _266
REMARK  101  A    between atoms: _265  and  _268
REMARK  102  A    between atoms: _268  and  _269
REMARK  103  A    between atoms: _274  and  _275
REMARK  104  A    between atoms: _278  and  _279
REMARK  105  A    between atoms: _284  and  _286
REMARK  106  A    between atoms: _286  and  _287
REMARK  107  A    between atoms: _286  and  _289
REMARK  108  A    between atoms: _289  and  _290
REMARK  109  A    between atoms: _293  and  _295
REMARK  110  A    between atoms: _295  and  _296
REMARK  111  A    between atoms: _295  and  _298
REMARK  112  A    between atoms: _298  and  _299
REMARK  113  A    between atoms: _302  and  _304
REMARK  114  A    between atoms: _304  and  _305
REMARK  115  A    between atoms: _307  and  _309
REMARK  116  A    between atoms: _309  and  _310
REMARK  117  A    between atoms: _309  and  _312
REMARK  118  A    between atoms: _312  and  _313
REMARK  119  A    between atoms: _313  and  _314
REMARK  120  A    between atoms: _314  and  _315
REMARK  121  A    between atoms: _325  and  _326
REMARK  122  A    between atoms: _331  and  _333
REMARK  123  A    between atoms: _333  and  _334
REMARK  124  A    between atoms: _333  and  _336
REMARK  125  A    between atoms: _336  and  _337
REMARK  126  A    between atoms: _340  and  _342
REMARK  127  A    between atoms: _342  and  _343
REMARK  128  A    between atoms: _342  and  _345
REMARK  129  A    between atoms: _348  and  _350
REMARK  130  A    between atoms: _350  and  _351
REMARK  131  A    between atoms: _350  and  _353
REMARK  132  A    between atoms: _353  and  _354
REMARK  133  A    between atoms: _357  and  _359
REMARK  134  A    between atoms: _359  and  _360
REMARK  135  A    between atoms: _359  and  _362
REMARK  136  A    between atoms: _362  and  _363
REMARK  137  A    between atoms: _366  and  _368
REMARK  138  A    between atoms: _368  and  _369
REMARK  139  A    between atoms: _371  and  _373
REMARK  140  A    between atoms: _373  and  _374
REMARK  141  A    between atoms: _377  and  _379
REMARK  142  A    between atoms: _379  and  _380
REMARK  143  A    between atoms: _379  and  _382
REMARK  144  A    between atoms: _382  and  _383
REMARK  145  A    between atoms: _383  and  _384
REMARK  146  A    between atoms: _389  and  _391
REMARK  147  A    between atoms: _391  and  _392
REMARK  148  A    between atoms: _391  and  _394
REMARK  149  A    between atoms: _394  and  _395
REMARK  150  A    between atoms: _400  and  _402
REMARK  151  A    between atoms: _402  and  _403
REMARK  152  A    between atoms: _402  and  _405
REMARK  153  A    between atoms: _405  and  _406
REMARK  154  A    between atoms: _408  and  _410
REMARK  155  A    between atoms: _410  and  _411
REMARK  156  A    between atoms: _410  and  _413
REMARK  157  A    between atoms: _416  and  _418
REMARK  158  A    between atoms: _418  and  _419
REMARK  159  A    between atoms: _418  and  _421
REMARK  160  A    between atoms: _421  and  _422
REMARK  161  A    between atoms: _424  and  _426
REMARK  162  A    between atoms: _426  and  _427
REMARK  163  A    between atoms: _430  and  _432
REMARK  164  A    between atoms: _432  and  _433
REMARK  165  A    between atoms: _432  and  _435
REMARK  166  A    between atoms: _435  and  _436
REMARK  167  A    between atoms: _446  and  _448
REMARK  168  A    between atoms: _448  and  _449
REMARK  169  A    between atoms: _448  and  _451
REMARK  170  A    between atoms: _454  and  _456
REMARK  171  A    between atoms: _456  and  _457
REMARK  172  A    between atoms: _456  and  _459
REMARK  173  A    between atoms: _459  and  _460
REMARK  174  A    between atoms: _460  and  _461
REMARK  175  A    between atoms: _466  and  _468
REMARK  176  A    between atoms: _468  and  _469
REMARK  177  A    between atoms: _471  and  _473
REMARK  178  A    between atoms: _473  and  _474
REMARK  179  A    between atoms: _477  and  _479
REMARK  180  A    between atoms: _479  and  _480
REMARK  181  A    between atoms: _479  and  _482
REMARK  182  A    between atoms: _482  and  _483
REMARK  183  A    between atoms: _486  and  _488
REMARK  184  A    between atoms: _488  and  _489
REMARK  185  A    between atoms: _491  and  _493
REMARK  186  A    between atoms: _493  and  _494
REMARK  187  A    between atoms: _496  and  _498
REMARK  188  A    between atoms: _498  and  _499
REMARK  189  A    between atoms: _498  and  _501
REMARK  190  A    between atoms: _501  and  _502
REMARK  191  A    between atoms: _502  and  _503
REMARK  192  A    between atoms: _503  and  _504
REMARK  193  A    between atoms: _504  and  _505
REMARK  194  A    between atoms: _509  and  _511
REMARK  195  A    between atoms: _511  and  _512
REMARK  196  A    between atoms: _511  and  _514
REMARK  197  A    between atoms: _514  and  _515
REMARK  198  A    between atoms: _515  and  _516
REMARK  199  A    between atoms: _516  and  _517
REMARK  200  A    between atoms: _526  and  _528
REMARK  201  A    between atoms: _528  and  _529
REMARK  202  A    between atoms: _528  and  _531
REMARK  203  A    between atoms: _531  and  _532
REMARK  204  A    between atoms: _537  and  _538
REMARK  205  A    between atoms: _540  and  _542
REMARK  206  A    between atoms: _542  and  _543
REMARK  207  A    between atoms: _542  and  _545
REMARK  208  A    between atoms: _545  and  _546
REMARK  209  A    between atoms: _556  and  _558
REMARK  210  A    between atoms: _558  and  _559
REMARK  211  A    between atoms: _558  and  _561
REMARK  212  A    between atoms: _561  and  _562
REMARK  213  A    between atoms: _564  and  _566
REMARK  214  A    between atoms: _566  and  _567
REMARK  215  A    between atoms: _566  and  _569
REMARK  216  A    between atoms: _569  and  _570
REMARK  217  A    between atoms: _573  and  _575
REMARK  218  A    between atoms: _575  and  _576
REMARK  219  A    between atoms: _575  and  _578
REMARK  220  A    between atoms: _581  and  _583
REMARK  221  A    between atoms: _583  and  _584
REMARK  222  A    between atoms: _583  and  _586
REMARK  223  A    between atoms: _586  and  _587
REMARK  224  A    between atoms: _590  and  _592
REMARK  225  A    between atoms: _592  and  _593
REMARK  226  A    between atoms: _592  and  _595
REMARK  227  A    between atoms: _598  and  _599
REMARK  228  A    between atoms: _604  and  _606
REMARK  229  A    between atoms: _606  and  _607
REMARK  230  A    between atoms: _606  and  _609
REMARK  231  A    between atoms: _609  and  _610
REMARK  232  A    between atoms: _615  and  _616
REMARK  233  A    between atoms: _619  and  _620
REMARK  234  A    between atoms: _625  and  _627
REMARK  235  A    between atoms: _627  and  _628
REMARK  236  A    between atoms: _627  and  _630
REMARK  237  A    between atoms: _630  and  _631
REMARK  238  A    between atoms: _634  and  _636
REMARK  239  A    between atoms: _636  and  _637
REMARK  240  A    between atoms: _636  and  _639
REMARK  241  A    between atoms: _639  and  _640
REMARK  242  A    between atoms: _643  and  _645
REMARK  243  A    between atoms: _645  and  _646
REMARK  244  A    between atoms: _648  and  _650
REMARK  245  A    between atoms: _650  and  _651
REMARK  246  A    between atoms: _650  and  _653
REMARK  247  A    between atoms: _653  and  _654
REMARK  248  A    between atoms: _654  and  _655
REMARK  249  A    between atoms: _655  and  _656
REMARK  250  A    between atoms: _665  and  _667
REMARK  251  A    between atoms: _667  and  _668
REMARK  252  A    between atoms: _667  and  _670
REMARK  253  A    between atoms: _670  and  _671
REMARK                            x       y       z     vdW  Elec       q    Type
REMARK                         _______ _______ _______ _____ _____    ______ ____
ROOT
ATOM      1  O   HOH     1       4.040  -4.338  19.788  0.00  0.00    +0.000 OA
ENDROOT
TORSDOF 0
REMARK  Name = ../refined-set-2016/3slz/3slz_pocket.pdb
REMARK  253 active torsions:
REMARK  status: ('A' for Active; 'I' for Inactive)
REMARK    1  A    between atoms: _2  and  _3
REMARK    2  A    between atoms: _9  and  _10
REMARK    3  A    between atoms: _15  and  _17
REMARK    4  A    between atoms: _17  and  _18
REMARK    5  A    between atoms: _17  and  _20
REMARK    6  A    between atoms: _20  and  _21
REMARK    7  A    between atoms: _24  and  _26
REMARK    8  A    between atoms: _26  and  _27
REMARK    9  A    between atoms: _26  and  _29
REMARK   10  A    between atoms: _32  and  _34
REMARK   11  A    between atoms: _34  and  _35
REMARK   12  A    between atoms: _34  and  _37
REMARK   13  A    between atoms: _37  and  _38
REMARK   14  A    between atoms: _41  and  _43
REMARK   15  A    between atoms: _43  and  _44
REMARK   16  A    between atoms: _43  and  _46
REMARK   17  A    between atoms: _46  and  _47
REMARK   18  A    between atoms: _50  and  _52
REMARK   19  A    between atoms: _52  and  _53
REMARK   20  A    between atoms: _55  and  _57
REMARK   21  A    between atoms: _57  and  _58
REMARK   22  A    between atoms: _61  and  _63
REMARK   23  A    between atoms: _63  and  _64
REMARK   24  A    between atoms: _63  and  _66
REMARK   25  A    between atoms: _66  and  _67
REMARK   26  A    between atoms: _67  and  _68
REMARK   27  A    between atoms: _73  and  _75
REMARK   28  A    between atoms: _75  and  _76
REMARK   29  A    between atoms: _75  and  _78
REMARK   30  A    between atoms: _78  and  _79
REMARK   31  A    between atoms: _84  and  _86
REMARK   32  A    between atoms: _86  and  _87
REMARK   33  A    between atoms: _86  and  _89
REMARK   34  A    between atoms: _89  and  _90
REMARK   35  A    between atoms: _92  and  _94
REMARK   36  A    between atoms: _94  and  _95
REMARK   37  A    between atoms: _94  and  _97
REMARK   38  A    between atoms: _100  and  _102
REMARK   39  A    between atoms: _102  and  _103
REMARK   40  A    between atoms: _102  and  _105
REMARK   41  A    between atoms: _105  and  _106
REMARK   42  A    between atoms: _108  and  _110
REMARK   43  A    between atoms: _110  and  _111
REMARK   44  A    between atoms: _114  and  _116
REMARK   45  A    between atoms: _116  and  _117
REMARK   46  A    between atoms: _116  and  _119
REMARK   47  A    between atoms: _119  and  _120
REMARK   48  A    between atoms: _130  and  _132
REMARK   49  A    between atoms: _132  and  _133
REMARK   50  A    between atoms: _132  and  _135
REMARK   51  A    between atoms: _138  and  _140
REMARK   52  A    between atoms: _140  and  _141
REMARK   53  A    between atoms: _140  and  _143
REMARK   54  A    between atoms: _143  and  _144
REMARK   55  A    between atoms: _144  and  _145
REMARK   56  A    between atoms: _150  and  _152
REMARK   57  A    between atoms: _152  and  _153
REMARK   58  A    between atoms: _155  and  _157
REMARK   59  A    between atoms: _157  and  _158
REMARK   60  A    between atoms: _161  and  _163
REMARK   61  A    between atoms: _163  and  _164
REMARK   62  A    between atoms: _163  and  _166
REMARK   63  A    between atoms: _166  and  _167
REMARK   64  A    between atoms: _170  and  _172
REMARK   65  A    between atoms: _172  and  _173
REMARK   66  A    between atoms: _175  and  _177
REMARK   67  A    between atoms: _177  and  _178
REMARK   68  A    between atoms: _180  and  _182
REMARK   69  A    between atoms: _182  and  _183
REMARK   70  A    between atoms: _182  and  _185
REMARK   71  A    between atoms: _185  and  _186
REMARK   72  A    between atoms: _186  and  _187
REMARK   73  A    between atoms: _187  and  _188
REMARK   74  A    between atoms: _188  and  _189
REMARK   75  A    between atoms: _193  and  _195
REMARK   76  A    between atoms: _195  and  _196
REMARK   77  A    between atoms: _195  and  _198
REMARK   78  A    between atoms: _198  and  _199
REMARK   79  A    between atoms: _204  and  _205
REMARK   80  A    between atoms: _207  and  _209
REMARK   81  A    between atoms: _209  and  _210
REMARK   82  A    between atoms: _209  and  _212
REMARK   83  A    between atoms: _212  and  _213
REMARK   84  A    between atoms: _223  and  _225
REMARK   85  A    between atoms: _225  and  _226
REMARK   86  A    between atoms: _225  and  _228
REMARK   87  A    between atoms: _228  and  _229
REMARK   88  A    between atoms: _232  and  _234
REMARK   89  A    between atoms: _234  and  _235
REMARK   90  A    between atoms: _234  and  _237
REMARK   91  A    between atoms: _240  and  _242
REMARK   92  A    between atoms: _242  and  _243
REMARK   93  A    between atoms: _242  and  _245
REMARK   94  A    between atoms: _245  and  _246
REMARK   95  A    between atoms: _249  and  _251
REMARK   96  A    between atoms: _251  and  _252
REMARK   97  A    between atoms: _251  and  _254
REMARK   98  A    between atoms: _257  and  _258
REMARK   99  A    between atoms: _263  and  _265
REMARK  100  A    between atoms: _265  and  _266
REMARK  101  A    between atoms: _265  and  _268
REMARK  102  A    between atoms: _268  and  _269
REMARK  103  A    between atoms: _274  and  _275
REMARK  104  A    between atoms: _278  and  _279
REMARK  105  A    between atoms: _284  and  _286
REMARK  106  A    between atoms: _286  and  _287
REMARK  107  A    between atoms: _286  and  _289
REMARK  108  A    between atoms: _289  and  _290
REMARK  109  A    between atoms: _293  and  _295
REMARK  110  A    between atoms: _295  and  _296
REMARK  111  A    between atoms: _295  and  _298
REMARK  112  A    between atoms: _298  and  _299
REMARK  113  A    between atoms: _302  and  _304
REMARK  114  A    between atoms: _304  and  _305
REMARK  115  A    between atoms: _307  and  _309
REMARK  116  A    between atoms: _309  and  _310
REMARK  117  A    between atoms: _309  and  _312
REMARK  118  A    between atoms: _312  and  _313
REMARK  119  A    between atoms: _313  and  _314
REMARK  120  A    between atoms: _314  and  _315
REMARK  121  A    between atoms: _325  and  _326
REMARK  122  A    between atoms: _331  and  _333
REMARK  123  A    between atoms: _333  and  _334
REMARK  124  A    between atoms: _333  and  _336
REMARK  125  A    between atoms: _336  and  _337
REMARK  126  A    between atoms: _340  and  _342
REMARK  127  A    between atoms: _342  and  _343
REMARK  128  A    between atoms: _342  and  _345
REMARK  129  A    between atoms: _348  and  _350
REMARK  130  A    between atoms: _350  and  _351
REMARK  131  A    between atoms: _350  and  _353
REMARK  132  A    between atoms: _353  and  _354
REMARK  133  A    between atoms: _357  and  _359
REMARK  134  A    between atoms: _359  and  _360
REMARK  135  A    between atoms: _359  and  _362
REMARK  136  A    between atoms: _362  and  _363
REMARK  137  A    between atoms: _366  and  _368
REMARK  138  A    between atoms: _368  and  _369
REMARK  139  A    between atoms: _371  and  _373
REMARK  140  A    between atoms: _373  and  _374
REMARK  141  A    between atoms: _377  and  _379
REMARK  142  A    between atoms: _379  and  _380
REMARK  143  A    between atoms: _379  and  _382
REMARK  144  A    between atoms: _382  and  _383
REMARK  145  A    between atoms: _383  and  _384
REMARK  146  A    between atoms: _389  and  _391
REMARK  147  A    between atoms: _391  and  _392
REMARK  148  A    between atoms: _391  and  _394
REMARK  149  A    between atoms: _394  and  _395
REMARK  150  A    between atoms: _400  and  _402
REMARK  151  A    between atoms: _402  and  _403
REMARK  152  A    between atoms: _402  and  _405
REMARK  153  A    between atoms: _405  and  _406
REMARK  154  A    between atoms: _408  and  _410
REMARK  155  A    between atoms: _410  and  _411
REMARK  156  A    between atoms: _410  and  _413
REMARK  157  A    between atoms: _416  and  _418
REMARK  158  A    between atoms: _418  and  _419
REMARK  159  A    between atoms: _418  and  _421
REMARK  160  A    between atoms: _421  and  _422
REMARK  161  A    between atoms: _424  and  _426
REMARK  162  A    between atoms: _426  and  _427
REMARK  163  A    between atoms: _430  and  _432
REMARK  164  A    between atoms: _432  and  _433
REMARK  165  A    between atoms: _432  and  _435
REMARK  166  A    between atoms: _435  and  _436
REMARK  167  A    between atoms: _446  and  _448
REMARK  168  A    between atoms: _448  and  _449
REMARK  169  A    between atoms: _448  and  _451
REMARK  170  A    between atoms: _454  and  _456
REMARK  171  A    between atoms: _456  and  _457
REMARK  172  A    between atoms: _456  and  _459
REMARK  173  A    between atoms: _459  and  _460
REMARK  174  A    between atoms: _460  and  _461
REMARK  175  A    between atoms: _466  and  _468
REMARK  176  A    between atoms: _468  and  _469
REMARK  177  A    between atoms: _471  and  _473
REMARK  178  A    between atoms: _473  and  _474
REMARK  179  A    between atoms: _477  and  _479
REMARK  180  A    between atoms: _479  and  _480
REMARK  181  A    between atoms: _479  and  _482
REMARK  182  A    between atoms: _482  and  _483
REMARK  183  A    between atoms: _486  and  _488
REMARK  184  A    between atoms: _488  and  _489
REMARK  185  A    between atoms: _491  and  _493
REMARK  186  A    between atoms: _493  and  _494
REMARK  187  A    between atoms: _496  and  _498
REMARK  188  A    between atoms: _498  and  _499
REMARK  189  A    between atoms: _498  and  _501
REMARK  190  A    between atoms: _501  and  _502
REMARK  191  A    between atoms: _502  and  _503
REMARK  192  A    between atoms: _503  and  _504
REMARK  193  A    between atoms: _504  and  _505
REMARK  194  A    between atoms: _509  and  _511
REMARK  195  A    between atoms: _511  and  _512
REMARK  196  A    between atoms: _511  and  _514
REMARK  197  A    between atoms: _514  and  _515
REMARK  198  A    between atoms: _515  and  _516
REMARK  199  A    between atoms: _516  and  _517
REMARK  200  A    between atoms: _526  and  _528
REMARK  201  A    between atoms: _528  and  _529
REMARK  202  A    between atoms: _528  and  _531
REMARK  203  A    between atoms: _531  and  _532
REMARK  204  A    between atoms: _537  and  _538
REMARK  205  A    between atoms: _540  and  _542
REMARK  206  A    between atoms: _542  and  _543
REMARK  207  A    between atoms: _542  and  _545
REMARK  208  A    between atoms: _545  and  _546
REMARK  209  A    between atoms: _556  and  _558
REMARK  210  A    between atoms: _558  and  _559
REMARK  211  A    between atoms: _558  and  _561
REMARK  212  A    between atoms: _561  and  _562
REMARK  213  A    between atoms: _564  and  _566
REMARK  214  A    between atoms: _566  and  _567
REMARK  215  A    between atoms: _566  and  _569
REMARK  216  A    between atoms: _569  and  _570
REMARK  217  A    between atoms: _573  and  _575
REMARK  218  A    between atoms: _575  and  _576
REMARK  219  A    between atoms: _575  and  _578
REMARK  220  A    between atoms: _581  and  _583
REMARK  221  A    between atoms: _583  and  _584
REMARK  222  A    between atoms: _583  and  _586
REMARK  223  A    between atoms: _586  and  _587
REMARK  224  A    between atoms: _590  and  _592
REMARK  225  A    between atoms: _592  and  _593
REMARK  226  A    between atoms: _592  and  _595
REMARK  227  A    between atoms: _598  and  _599
REMARK  228  A    between atoms: _604  and  _606
REMARK  229  A    between atoms: _606  and  _607
REMARK  230  A    between atoms: _606  and  _609
REMARK  231  A    between atoms: _609  and  _610
REMARK  232  A    between atoms: _615  and  _616
REMARK  233  A    between atoms: _619  and  _620
REMARK  234  A    between atoms: _625  and  _627
REMARK  235  A    between atoms: _627  and  _628
REMARK  236  A    between atoms: _627  and  _630
REMARK  237  A    between atoms: _630  and  _631
REMARK  238  A    between atoms: _634  and  _636
REMARK  239  A    between atoms: _636  and  _637
REMARK  240  A    between atoms: _636  and  _639
REMARK  241  A    between atoms: _639  and  _640
REMARK  242  A    between atoms: _643  and  _645
REMARK  243  A    between atoms: _645  and  _646
REMARK  244  A    between atoms: _648  and  _650
REMARK  245  A    between atoms: _650  and  _651
REMARK  246  A    between atoms: _650  and  _653
REMARK  247  A    between atoms: _653  and  _654
REMARK  248  A    between atoms: _654  and  _655
REMARK  249  A    between atoms: _655  and  _656
REMARK  250  A    between atoms: _665  and  _667
REMARK  251  A    between atoms: _667  and  _668
REMARK  252  A    between atoms: _667  and  _670
REMARK  253  A    between atoms: _670  and  _671
REMARK                            x       y       z     vdW  Elec       q    Type
REMARK                         _______ _______ _______ _____ _____    ______ ____
ROOT
ATOM      1  O   HOH     1       5.814  -2.350  16.168  0.00  0.00    +0.000 OA
ENDROOT
TORSDOF 0
REMARK  Name = ../refined-set-2016/3slz/3slz_pocket.pdb
REMARK  253 active torsions:
REMARK  status: ('A' for Active; 'I' for Inactive)
REMARK    1  A    between atoms: _2  and  _3
REMARK    2  A    between atoms: _9  and  _10
REMARK    3  A    between atoms: _15  and  _17
REMARK    4  A    between atoms: _17  and  _18
REMARK    5  A    between atoms: _17  and  _20
REMARK    6  A    between atoms: _20  and  _21
REMARK    7  A    between atoms: _24  and  _26
REMARK    8  A    between atoms: _26  and  _27
REMARK    9  A    between atoms: _26  and  _29
REMARK   10  A    between atoms: _32  and  _34
REMARK   11  A    between atoms: _34  and  _35
REMARK   12  A    between atoms: _34  and  _37
REMARK   13  A    between atoms: _37  and  _38
REMARK   14  A    between atoms: _41  and  _43
REMARK   15  A    between atoms: _43  and  _44
REMARK   16  A    between atoms: _43  and  _46
REMARK   17  A    between atoms: _46  and  _47
REMARK   18  A    between atoms: _50  and  _52
REMARK   19  A    between atoms: _52  and  _53
REMARK   20  A    between atoms: _55  and  _57
REMARK   21  A    between atoms: _57  and  _58
REMARK   22  A    between atoms: _61  and  _63
REMARK   23  A    between atoms: _63  and  _64
REMARK   24  A    between atoms: _63  and  _66
REMARK   25  A    between atoms: _66  and  _67
REMARK   26  A    between atoms: _67  and  _68
REMARK   27  A    between atoms: _73  and  _75
REMARK   28  A    between atoms: _75  and  _76
REMARK   29  A    between atoms: _75  and  _78
REMARK   30  A    between atoms: _78  and  _79
REMARK   31  A    between atoms: _84  and  _86
REMARK   32  A    between atoms: _86  and  _87
REMARK   33  A    between atoms: _86  and  _89
REMARK   34  A    between atoms: _89  and  _90
REMARK   35  A    between atoms: _92  and  _94
REMARK   36  A    between atoms: _94  and  _95
REMARK   37  A    between atoms: _94  and  _97
REMARK   38  A    between atoms: _100  and  _102
REMARK   39  A    between atoms: _102  and  _103
REMARK   40  A    between atoms: _102  and  _105
REMARK   41  A    between atoms: _105  and  _106
REMARK   42  A    between atoms: _108  and  _110
REMARK   43  A    between atoms: _110  and  _111
REMARK   44  A    between atoms: _114  and  _116
REMARK   45  A    between atoms: _116  and  _117
REMARK   46  A    between atoms: _116  and  _119
REMARK   47  A    between atoms: _119  and  _120
REMARK   48  A    between atoms: _130  and  _132
REMARK   49  A    between atoms: _132  and  _133
REMARK   50  A    between atoms: _132  and  _135
REMARK   51  A    between atoms: _138  and  _140
REMARK   52  A    between atoms: _140  and  _141
REMARK   53  A    between atoms: _140  and  _143
REMARK   54  A    between atoms: _143  and  _144
REMARK   55  A    between atoms: _144  and  _145
REMARK   56  A    between atoms: _150  and  _152
REMARK   57  A    between atoms: _152  and  _153
REMARK   58  A    between atoms: _155  and  _157
REMARK   59  A    between atoms: _157  and  _158
REMARK   60  A    between atoms: _161  and  _163
REMARK   61  A    between atoms: _163  and  _164
REMARK   62  A    between atoms: _163  and  _166
REMARK   63  A    between atoms: _166  and  _167
REMARK   64  A    between atoms: _170  and  _172
REMARK   65  A    between atoms: _172  and  _173
REMARK   66  A    between atoms: _175  and  _177
REMARK   67  A    between atoms: _177  and  _178
REMARK   68  A    between atoms: _180  and  _182
REMARK   69  A    between atoms: _182  and  _183
REMARK   70  A    between atoms: _182  and  _185
REMARK   71  A    between atoms: _185  and  _186
REMARK   72  A    between atoms: _186  and  _187
REMARK   73  A    between atoms: _187  and  _188
REMARK   74  A    between atoms: _188  and  _189
REMARK   75  A    between atoms: _193  and  _195
REMARK   76  A    between atoms: _195  and  _196
REMARK   77  A    between atoms: _195  and  _198
REMARK   78  A    between atoms: _198  and  _199
REMARK   79  A    between atoms: _204  and  _205
REMARK   80  A    between atoms: _207  and  _209
REMARK   81  A    between atoms: _209  and  _210
REMARK   82  A    between atoms: _209  and  _212
REMARK   83  A    between atoms: _212  and  _213
REMARK   84  A    between atoms: _223  and  _225
REMARK   85  A    between atoms: _225  and  _226
REMARK   86  A    between atoms: _225  and  _228
REMARK   87  A    between atoms: _228  and  _229
REMARK   88  A    between atoms: _232  and  _234
REMARK   89  A    between atoms: _234  and  _235
REMARK   90  A    between atoms: _234  and  _237
REMARK   91  A    between atoms: _240  and  _242
REMARK   92  A    between atoms: _242  and  _243
REMARK   93  A    between atoms: _242  and  _245
REMARK   94  A    between atoms: _245  and  _246
REMARK   95  A    between atoms: _249  and  _251
REMARK   96  A    between atoms: _251  and  _252
REMARK   97  A    between atoms: _251  and  _254
REMARK   98  A    between atoms: _257  and  _258
REMARK   99  A    between atoms: _263  and  _265
REMARK  100  A    between atoms: _265  and  _266
REMARK  101  A    between atoms: _265  and  _268
REMARK  102  A    between atoms: _268  and  _269
REMARK  103  A    between atoms: _274  and  _275
REMARK  104  A    between atoms: _278  and  _279
REMARK  105  A    between atoms: _284  and  _286
REMARK  106  A    between atoms: _286  and  _287
REMARK  107  A    between atoms: _286  and  _289
REMARK  108  A    between atoms: _289  and  _290
REMARK  109  A    between atoms: _293  and  _295
REMARK  110  A    between atoms: _295  and  _296
REMARK  111  A    between atoms: _295  and  _298
REMARK  112  A    between atoms: _298  and  _299
REMARK  113  A    between atoms: _302  and  _304
REMARK  114  A    between atoms: _304  and  _305
REMARK  115  A    between atoms: _307  and  _309
REMARK  116  A    between atoms: _309  and  _310
REMARK  117  A    between atoms: _309  and  _312
REMARK  118  A    between atoms: _312  and  _313
REMARK  119  A    between atoms: _313  and  _314
REMARK  120  A    between atoms: _314  and  _315
REMARK  121  A    between atoms: _325  and  _326
REMARK  122  A    between atoms: _331  and  _333
REMARK  123  A    between atoms: _333  and  _334
REMARK  124  A    between atoms: _333  and  _336
REMARK  125  A    between atoms: _336  and  _337
REMARK  126  A    between atoms: _340  and  _342
REMARK  127  A    between atoms: _342  and  _343
REMARK  128  A    between atoms: _342  and  _345
REMARK  129  A    between atoms: _348  and  _350
REMARK  130  A    between atoms: _350  and  _351
REMARK  131  A    between atoms: _350  and  _353
REMARK  132  A    between atoms: _353  and  _354
REMARK  133  A    between atoms: _357  and  _359
REMARK  134  A    between atoms: _359  and  _360
REMARK  135  A    between atoms: _359  and  _362
REMARK  136  A    between atoms: _362  and  _363
REMARK  137  A    between atoms: _366  and  _368
REMARK  138  A    between atoms: _368  and  _369
REMARK  139  A    between atoms: _371  and  _373
REMARK  140  A    between atoms: _373  and  _374
REMARK  141  A    between atoms: _377  and  _379
REMARK  142  A    between atoms: _379  and  _380
REMARK  143  A    between atoms: _379  and  _382
REMARK  144  A    between atoms: _382  and  _383
REMARK  145  A    between atoms: _383  and  _384
REMARK  146  A    between atoms: _389  and  _391
REMARK  147  A    between atoms: _391  and  _392
REMARK  148  A    between atoms: _391  and  _394
REMARK  149  A    between atoms: _394  and  _395
REMARK  150  A    between atoms: _400  and  _402
REMARK  151  A    between atoms: _402  and  _403
REMARK  152  A    between atoms: _402  and  _405
REMARK  153  A    between atoms: _405  and  _406
REMARK  154  A    between atoms: _408  and  _410
REMARK  155  A    between atoms: _410  and  _411
REMARK  156  A    between atoms: _410  and  _413
REMARK  157  A    between atoms: _416  and  _418
REMARK  158  A    between atoms: _418  and  _419
REMARK  159  A    between atoms: _418  and  _421
REMARK  160  A    between atoms: _421  and  _422
REMARK  161  A    between atoms: _424  and  _426
REMARK  162  A    between atoms: _426  and  _427
REMARK  163  A    between atoms: _430  and  _432
REMARK  164  A    between atoms: _432  and  _433
REMARK  165  A    between atoms: _432  and  _435
REMARK  166  A    between atoms: _435  and  _436
REMARK  167  A    between atoms: _446  and  _448
REMARK  168  A    between atoms: _448  and  _449
REMARK  169  A    between atoms: _448  and  _451
REMARK  170  A    between atoms: _454  and  _456
REMARK  171  A    between atoms: _456  and  _457
REMARK  172  A    between atoms: _456  and  _459
REMARK  173  A    between atoms: _459  and  _460
REMARK  174  A    between atoms: _460  and  _461
REMARK  175  A    between atoms: _466  and  _468
REMARK  176  A    between atoms: _468  and  _469
REMARK  177  A    between atoms: _471  and  _473
REMARK  178  A    between atoms: _473  and  _474
REMARK  179  A    between atoms: _477  and  _479
REMARK  180  A    between atoms: _479  and  _480
REMARK  181  A    between atoms: _479  and  _482
REMARK  182  A    between atoms: _482  and  _483
REMARK  183  A    between atoms: _486  and  _488
REMARK  184  A    between atoms: _488  and  _489
REMARK  185  A    between atoms: _491  and  _493
REMARK  186  A    between atoms: _493  and  _494
REMARK  187  A    between atoms: _496  and  _498
REMARK  188  A    between atoms: _498  and  _499
REMARK  189  A    between atoms: _498  and  _501
REMARK  190  A    between atoms: _501  and  _502
REMARK  191  A    between atoms: _502  and  _503
REMARK  192  A    between atoms: _503  and  _504
REMARK  193  A    between atoms: _504  and  _505
REMARK  194  A    between atoms: _509  and  _511
REMARK  195  A    between atoms: _511  and  _512
REMARK  196  A    between atoms: _511  and  _514
REMARK  197  A    between atoms: _514  and  _515
REMARK  198  A    between atoms: _515  and  _516
REMARK  199  A    between atoms: _516  and  _517
REMARK  200  A    between atoms: _526  and  _528
REMARK  201  A    between atoms: _528  and  _529
REMARK  202  A    between atoms: _528  and  _531
REMARK  203  A    between atoms: _531  and  _532
REMARK  204  A    between atoms: _537  and  _538
REMARK  205  A    between atoms: _540  and  _542
REMARK  206  A    between atoms: _542  and  _543
REMARK  207  A    between atoms: _542  and  _545
REMARK  208  A    between atoms: _545  and  _546
REMARK  209  A    between atoms: _556  and  _558
REMARK  210  A    between atoms: _558  and  _559
REMARK  211  A    between atoms: _558  and  _561
REMARK  212  A    between atoms: _561  and  _562
REMARK  213  A    between atoms: _564  and  _566
REMARK  214  A    between atoms: _566  and  _567
REMARK  215  A    between atoms: _566  and  _569
REMARK  216  A    between atoms: _569  and  _570
REMARK  217  A    between atoms: _573  and  _575
REMARK  218  A    between atoms: _575  and  _576
REMARK  219  A    between atoms: _575  and  _578
REMARK  220  A    between atoms: _581  and  _583
REMARK  221  A    between atoms: _583  and  _584
REMARK  222  A    between atoms: _583  and  _586
REMARK  223  A    between atoms: _586  and  _587
REMARK  224  A    between atoms: _590  and  _592
REMARK  225  A    between atoms: _592  and  _593
REMARK  226  A    between atoms: _592  and  _595
REMARK  227  A    between atoms: _598  and  _599
REMARK  228  A    between atoms: _604  and  _606
REMARK  229  A    between atoms: _606  and  _607
REMARK  230  A    between atoms: _606  and  _609
REMARK  231  A    between atoms: _609  and  _610
REMARK  232  A    between atoms: _615  and  _616
REMARK  233  A    between atoms: _619  and  _620
REMARK  234  A    between atoms: _625  and  _627
REMARK  235  A    between atoms: _627  and  _628
REMARK  236  A    between atoms: _627  and  _630
REMARK  237  A    between atoms: _630  and  _631
REMARK  238  A    between atoms: _634  and  _636
REMARK  239  A    between atoms: _636  and  _637
REMARK  240  A    between atoms: _636  and  _639
REMARK  241  A    between atoms: _639  and  _640
REMARK  242  A    between atoms: _643  and  _645
REMARK  243  A    between atoms: _645  and  _646
REMARK  244  A    between atoms: _648  and  _650
REMARK  245  A    between atoms: _650  and  _651
REMARK  246  A    between atoms: _650  and  _653
REMARK  247  A    between atoms: _653  and  _654
REMARK  248  A    between atoms: _654  and  _655
REMARK  249  A    between atoms: _655  and  _656
REMARK  250  A    between atoms: _665  and  _667
REMARK  251  A    between atoms: _667  and  _668
REMARK  252  A    between atoms: _667  and  _670
REMARK  253  A    between atoms: _670  and  _671
REMARK                            x       y       z     vdW  Elec       q    Type
REMARK                         _______ _______ _______ _____ _____    ______ ____
ROOT
ATOM      1  O   HOH     1       2.989   5.602  17.480  0.00  0.00    +0.000 OA
ENDROOT
TORSDOF 0
REMARK  Name = ../refined-set-2016/3slz/3slz_pocket.pdb
REMARK  253 active torsions:
REMARK  status: ('A' for Active; 'I' for Inactive)
REMARK    1  A    between atoms: _2  and  _3
REMARK    2  A    between atoms: _9  and  _10
REMARK    3  A    between atoms: _15  and  _17
REMARK    4  A    between atoms: _17  and  _18
REMARK    5  A    between atoms: _17  and  _20
REMARK    6  A    between atoms: _20  and  _21
REMARK    7  A    between atoms: _24  and  _26
REMARK    8  A    between atoms: _26  and  _27
REMARK    9  A    between atoms: _26  and  _29
REMARK   10  A    between atoms: _32  and  _34
REMARK   11  A    between atoms: _34  and  _35
REMARK   12  A    between atoms: _34  and  _37
REMARK   13  A    between atoms: _37  and  _38
REMARK   14  A    between atoms: _41  and  _43
REMARK   15  A    between atoms: _43  and  _44
REMARK   16  A    between atoms: _43  and  _46
REMARK   17  A    between atoms: _46  and  _47
REMARK   18  A    between atoms: _50  and  _52
REMARK   19  A    between atoms: _52  and  _53
REMARK   20  A    between atoms: _55  and  _57
REMARK   21  A    between atoms: _57  and  _58
REMARK   22  A    between atoms: _61  and  _63
REMARK   23  A    between atoms: _63  and  _64
REMARK   24  A    between atoms: _63  and  _66
REMARK   25  A    between atoms: _66  and  _67
REMARK   26  A    between atoms: _67  and  _68
REMARK   27  A    between atoms: _73  and  _75
REMARK   28  A    between atoms: _75  and  _76
REMARK   29  A    between atoms: _75  and  _78
REMARK   30  A    between atoms: _78  and  _79
REMARK   31  A    between atoms: _84  and  _86
REMARK   32  A    between atoms: _86  and  _87
REMARK   33  A    between atoms: _86  and  _89
REMARK   34  A    between atoms: _89  and  _90
REMARK   35  A    between atoms: _92  and  _94
REMARK   36  A    between atoms: _94  and  _95
REMARK   37  A    between atoms: _94  and  _97
REMARK   38  A    between atoms: _100  and  _102
REMARK   39  A    between atoms: _102  and  _103
REMARK   40  A    between atoms: _102  and  _105
REMARK   41  A    between atoms: _105  and  _106
REMARK   42  A    between atoms: _108  and  _110
REMARK   43  A    between atoms: _110  and  _111
REMARK   44  A    between atoms: _114  and  _116
REMARK   45  A    between atoms: _116  and  _117
REMARK   46  A    between atoms: _116  and  _119
REMARK   47  A    between atoms: _119  and  _120
REMARK   48  A    between atoms: _130  and  _132
REMARK   49  A    between atoms: _132  and  _133
REMARK   50  A    between atoms: _132  and  _135
REMARK   51  A    between atoms: _138  and  _140
REMARK   52  A    between atoms: _140  and  _141
REMARK   53  A    between atoms: _140  and  _143
REMARK   54  A    between atoms: _143  and  _144
REMARK   55  A    between atoms: _144  and  _145
REMARK   56  A    between atoms: _150  and  _152
REMARK   57  A    between atoms: _152  and  _153
REMARK   58  A    between atoms: _155  and  _157
REMARK   59  A    between atoms: _157  and  _158
REMARK   60  A    between atoms: _161  and  _163
REMARK   61  A    between atoms: _163  and  _164
REMARK   62  A    between atoms: _163  and  _166
REMARK   63  A    between atoms: _166  and  _167
REMARK   64  A    between atoms: _170  and  _172
REMARK   65  A    between atoms: _172  and  _173
REMARK   66  A    between atoms: _175  and  _177
REMARK   67  A    between atoms: _177  and  _178
REMARK   68  A    between atoms: _180  and  _182
REMARK   69  A    between atoms: _182  and  _183
REMARK   70  A    between atoms: _182  and  _185
REMARK   71  A    between atoms: _185  and  _186
REMARK   72  A    between atoms: _186  and  _187
REMARK   73  A    between atoms: _187  and  _188
REMARK   74  A    between atoms: _188  and  _189
REMARK   75  A    between atoms: _193  and  _195
REMARK   76  A    between atoms: _195  and  _196
REMARK   77  A    between atoms: _195  and  _198
REMARK   78  A    between atoms: _198  and  _199
REMARK   79  A    between atoms: _204  and  _205
REMARK   80  A    between atoms: _207  and  _209
REMARK   81  A    between atoms: _209  and  _210
REMARK   82  A    between atoms: _209  and  _212
REMARK   83  A    between atoms: _212  and  _213
REMARK   84  A    between atoms: _223  and  _225
REMARK   85  A    between atoms: _225  and  _226
REMARK   86  A    between atoms: _225  and  _228
REMARK   87  A    between atoms: _228  and  _229
REMARK   88  A    between atoms: _232  and  _234
REMARK   89  A    between atoms: _234  and  _235
REMARK   90  A    between atoms: _234  and  _237
REMARK   91  A    between atoms: _240  and  _242
REMARK   92  A    between atoms: _242  and  _243
REMARK   93  A    between atoms: _242  and  _245
REMARK   94  A    between atoms: _245  and  _246
REMARK   95  A    between atoms: _249  and  _251
REMARK   96  A    between atoms: _251  and  _252
REMARK   97  A    between atoms: _251  and  _254
REMARK   98  A    between atoms: _257  and  _258
REMARK   99  A    between atoms: _263  and  _265
REMARK  100  A    between atoms: _265  and  _266
REMARK  101  A    between atoms: _265  and  _268
REMARK  102  A    between atoms: _268  and  _269
REMARK  103  A    between atoms: _274  and  _275
REMARK  104  A    between atoms: _278  and  _279
REMARK  105  A    between atoms: _284  and  _286
REMARK  106  A    between atoms: _286  and  _287
REMARK  107  A    between atoms: _286  and  _289
REMARK  108  A    between atoms: _289  and  _290
REMARK  109  A    between atoms: _293  and  _295
REMARK  110  A    between atoms: _295  and  _296
REMARK  111  A    between atoms: _295  and  _298
REMARK  112  A    between atoms: _298  and  _299
REMARK  113  A    between atoms: _302  and  _304
REMARK  114  A    between atoms: _304  and  _305
REMARK  115  A    between atoms: _307  and  _309
REMARK  116  A    between atoms: _309  and  _310
REMARK  117  A    between atoms: _309  and  _312
REMARK  118  A    between atoms: _312  and  _313
REMARK  119  A    between atoms: _313  and  _314
REMARK  120  A    between atoms: _314  and  _315
REMARK  121  A    between atoms: _325  and  _326
REMARK  122  A    between atoms: _331  and  _333
REMARK  123  A    between atoms: _333  and  _334
REMARK  124  A    between atoms: _333  and  _336
REMARK  125  A    between atoms: _336  and  _337
REMARK  126  A    between atoms: _340  and  _342
REMARK  127  A    between atoms: _342  and  _343
REMARK  128  A    between atoms: _342  and  _345
REMARK  129  A    between atoms: _348  and  _350
REMARK  130  A    between atoms: _350  and  _351
REMARK  131  A    between atoms: _350  and  _353
REMARK  132  A    between atoms: _353  and  _354
REMARK  133  A    between atoms: _357  and  _359
REMARK  134  A    between atoms: _359  and  _360
REMARK  135  A    between atoms: _359  and  _362
REMARK  136  A    between atoms: _362  and  _363
REMARK  137  A    between atoms: _366  and  _368
REMARK  138  A    between atoms: _368  and  _369
REMARK  139  A    between atoms: _371  and  _373
REMARK  140  A    between atoms: _373  and  _374
REMARK  141  A    between atoms: _377  and  _379
REMARK  142  A    between atoms: _379  and  _380
REMARK  143  A    between atoms: _379  and  _382
REMARK  144  A    between atoms: _382  and  _383
REMARK  145  A    between atoms: _383  and  _384
REMARK  146  A    between atoms: _389  and  _391
REMARK  147  A    between atoms: _391  and  _392
REMARK  148  A    between atoms: _391  and  _394
REMARK  149  A    between atoms: _394  and  _395
REMARK  150  A    between atoms: _400  and  _402
REMARK  151  A    between atoms: _402  and  _403
REMARK  152  A    between atoms: _402  and  _405
REMARK  153  A    between atoms: _405  and  _406
REMARK  154  A    between atoms: _408  and  _410
REMARK  155  A    between atoms: _410  and  _411
REMARK  156  A    between atoms: _410  and  _413
REMARK  157  A    between atoms: _416  and  _418
REMARK  158  A    between atoms: _418  and  _419
REMARK  159  A    between atoms: _418  and  _421
REMARK  160  A    between atoms: _421  and  _422
REMARK  161  A    between atoms: _424  and  _426
REMARK  162  A    between atoms: _426  and  _427
REMARK  163  A    between atoms: _430  and  _432
REMARK  164  A    between atoms: _432  and  _433
REMARK  165  A    between atoms: _432  and  _435
REMARK  166  A    between atoms: _435  and  _436
REMARK  167  A    between atoms: _446  and  _448
REMARK  168  A    between atoms: _448  and  _449
REMARK  169  A    between atoms: _448  and  _451
REMARK  170  A    between atoms: _454  and  _456
REMARK  171  A    between atoms: _456  and  _457
REMARK  172  A    between atoms: _456  and  _459
REMARK  173  A    between atoms: _459  and  _460
REMARK  174  A    between atoms: _460  and  _461
REMARK  175  A    between atoms: _466  and  _468
REMARK  176  A    between atoms: _468  and  _469
REMARK  177  A    between atoms: _471  and  _473
REMARK  178  A    between atoms: _473  and  _474
REMARK  179  A    between atoms: _477  and  _479
REMARK  180  A    between atoms: _479  and  _480
REMARK  181  A    between atoms: _479  and  _482
REMARK  182  A    between atoms: _482  and  _483
REMARK  183  A    between atoms: _486  and  _488
REMARK  184  A    between atoms: _488  and  _489
REMARK  185  A    between atoms: _491  and  _493
REMARK  186  A    between atoms: _493  and  _494
REMARK  187  A    between atoms: _496  and  _498
REMARK  188  A    between atoms: _498  and  _499
REMARK  189  A    between atoms: _498  and  _501
REMARK  190  A    between atoms: _501  and  _502
REMARK  191  A    between atoms: _502  and  _503
REMARK  192  A    between atoms: _503  and  _504
REMARK  193  A    between atoms: _504  and  _505
REMARK  194  A    between atoms: _509  and  _511
REMARK  195  A    between atoms: _511  and  _512
REMARK  196  A    between atoms: _511  and  _514
REMARK  197  A    between atoms: _514  and  _515
REMARK  198  A    between atoms: _515  and  _516
REMARK  199  A    between atoms: _516  and  _517
REMARK  200  A    between atoms: _526  and  _528
REMARK  201  A    between atoms: _528  and  _529
REMARK  202  A    between atoms: _528  and  _531
REMARK  203  A    between atoms: _531  and  _532
REMARK  204  A    between atoms: _537  and  _538
REMARK  205  A    between atoms: _540  and  _542
REMARK  206  A    between atoms: _542  and  _543
REMARK  207  A    between atoms: _542  and  _545
REMARK  208  A    between atoms: _545  and  _546
REMARK  209  A    between atoms: _556  and  _558
REMARK  210  A    between atoms: _558  and  _559
REMARK  211  A    between atoms: _558  and  _561
REMARK  212  A    between atoms: _561  and  _562
REMARK  213  A    between atoms: _564  and  _566
REMARK  214  A    between atoms: _566  and  _567
REMARK  215  A    between atoms: _566  and  _569
REMARK  216  A    between atoms: _569  and  _570
REMARK  217  A    between atoms: _573  and  _575
REMARK  218  A    between atoms: _575  and  _576
REMARK  219  A    between atoms: _575  and  _578
REMARK  220  A    between atoms: _581  and  _583
REMARK  221  A    between atoms: _583  and  _584
REMARK  222  A    between atoms: _583  and  _586
REMARK  223  A    between atoms: _586  and  _587
REMARK  224  A    between atoms: _590  and  _592
REMARK  225  A    between atoms: _592  and  _593
REMARK  226  A    between atoms: _592  and  _595
REMARK  227  A    between atoms: _598  and  _599
REMARK  228  A    between atoms: _604  and  _606
REMARK  229  A    between atoms: _606  and  _607
REMARK  230  A    between atoms: _606  and  _609
REMARK  231  A    between atoms: _609  and  _610
REMARK  232  A    between atoms: _615  and  _616
REMARK  233  A    between atoms: _619  and  _620
REMARK  234  A    between atoms: _625  and  _627
REMARK  235  A    between atoms: _627  and  _628
REMARK  236  A    between atoms: _627  and  _630
REMARK  237  A    between atoms: _630  and  _631
REMARK  238  A    between atoms: _634  and  _636
REMARK  239  A    between atoms: _636  and  _637
REMARK  240  A    between atoms: _636  and  _639
REMARK  241  A    between atoms: _639  and  _640
REMARK  242  A    between atoms: _643  and  _645
REMARK  243  A    between atoms: _645  and  _646
REMARK  244  A    between atoms: _648  and  _650
REMARK  245  A    between atoms: _650  and  _651
REMARK  246  A    between atoms: _650  and  _653
REMARK  247  A    between atoms: _653  and  _654
REMARK  248  A    between atoms: _654  and  _655
REMARK  249  A    between atoms: _655  and  _656
REMARK  250  A    between atoms: _665  and  _667
REMARK  251  A    between atoms: _667  and  _668
REMARK  252  A    between atoms: _667  and  _670
REMARK  253  A    between atoms: _670  and  _671
REMARK                            x       y       z     vdW  Elec       q    Type
REMARK                         _______ _______ _______ _____ _____    ______ ____
ROOT
ATOM      1  O   HOH     1       6.568   1.365  18.532  0.00  0.00    +0.000 OA
ENDROOT
TORSDOF 0
REMARK  Name = ../refined-set-2016/3slz/3slz_pocket.pdb
REMARK  253 active torsions:
REMARK  status: ('A' for Active; 'I' for Inactive)
REMARK    1  A    between atoms: _2  and  _3
REMARK    2  A    between atoms: _9  and  _10
REMARK    3  A    between atoms: _15  and  _17
REMARK    4  A    between atoms: _17  and  _18
REMARK    5  A    between atoms: _17  and  _20
REMARK    6  A    between atoms: _20  and  _21
REMARK    7  A    between atoms: _24  and  _26
REMARK    8  A    between atoms: _26  and  _27
REMARK    9  A    between atoms: _26  and  _29
REMARK   10  A    between atoms: _32  and  _34
REMARK   11  A    between atoms: _34  and  _35
REMARK   12  A    between atoms: _34  and  _37
REMARK   13  A    between atoms: _37  and  _38
REMARK   14  A    between atoms: _41  and  _43
REMARK   15  A    between atoms: _43  and  _44
REMARK   16  A    between atoms: _43  and  _46
REMARK   17  A    between atoms: _46  and  _47
REMARK   18  A    between atoms: _50  and  _52
REMARK   19  A    between atoms: _52  and  _53
REMARK   20  A    between atoms: _55  and  _57
REMARK   21  A    between atoms: _57  and  _58
REMARK   22  A    between atoms: _61  and  _63
REMARK   23  A    between atoms: _63  and  _64
REMARK   24  A    between atoms: _63  and  _66
REMARK   25  A    between atoms: _66  and  _67
REMARK   26  A    between atoms: _67  and  _68
REMARK   27  A    between atoms: _73  and  _75
REMARK   28  A    between atoms: _75  and  _76
REMARK   29  A    between atoms: _75  and  _78
REMARK   30  A    between atoms: _78  and  _79
REMARK   31  A    between atoms: _84  and  _86
REMARK   32  A    between atoms: _86  and  _87
REMARK   33  A    between atoms: _86  and  _89
REMARK   34  A    between atoms: _89  and  _90
REMARK   35  A    between atoms: _92  and  _94
REMARK   36  A    between atoms: _94  and  _95
REMARK   37  A    between atoms: _94  and  _97
REMARK   38  A    between atoms: _100  and  _102
REMARK   39  A    between atoms: _102  and  _103
REMARK   40  A    between atoms: _102  and  _105
REMARK   41  A    between atoms: _105  and  _106
REMARK   42  A    between atoms: _108  and  _110
REMARK   43  A    between atoms: _110  and  _111
REMARK   44  A    between atoms: _114  and  _116
REMARK   45  A    between atoms: _116  and  _117
REMARK   46  A    between atoms: _116  and  _119
REMARK   47  A    between atoms: _119  and  _120
REMARK   48  A    between atoms: _130  and  _132
REMARK   49  A    between atoms: _132  and  _133
REMARK   50  A    between atoms: _132  and  _135
REMARK   51  A    between atoms: _138  and  _140
REMARK   52  A    between atoms: _140  and  _141
REMARK   53  A    between atoms: _140  and  _143
REMARK   54  A    between atoms: _143  and  _144
REMARK   55  A    between atoms: _144  and  _145
REMARK   56  A    between atoms: _150  and  _152
REMARK   57  A    between atoms: _152  and  _153
REMARK   58  A    between atoms: _155  and  _157
REMARK   59  A    between atoms: _157  and  _158
REMARK   60  A    between atoms: _161  and  _163
REMARK   61  A    between atoms: _163  and  _164
REMARK   62  A    between atoms: _163  and  _166
REMARK   63  A    between atoms: _166  and  _167
REMARK   64  A    between atoms: _170  and  _172
REMARK   65  A    between atoms: _172  and  _173
REMARK   66  A    between atoms: _175  and  _177
REMARK   67  A    between atoms: _177  and  _178
REMARK   68  A    between atoms: _180  and  _182
REMARK   69  A    between atoms: _182  and  _183
REMARK   70  A    between atoms: _182  and  _185
REMARK   71  A    between atoms: _185  and  _186
REMARK   72  A    between atoms: _186  and  _187
REMARK   73  A    between atoms: _187  and  _188
REMARK   74  A    between atoms: _188  and  _189
REMARK   75  A    between atoms: _193  and  _195
REMARK   76  A    between atoms: _195  and  _196
REMARK   77  A    between atoms: _195  and  _198
REMARK   78  A    between atoms: _198  and  _199
REMARK   79  A    between atoms: _204  and  _205
REMARK   80  A    between atoms: _207  and  _209
REMARK   81  A    between atoms: _209  and  _210
REMARK   82  A    between atoms: _209  and  _212
REMARK   83  A    between atoms: _212  and  _213
REMARK   84  A    between atoms: _223  and  _225
REMARK   85  A    between atoms: _225  and  _226
REMARK   86  A    between atoms: _225  and  _228
REMARK   87  A    between atoms: _228  and  _229
REMARK   88  A    between atoms: _232  and  _234
REMARK   89  A    between atoms: _234  and  _235
REMARK   90  A    between atoms: _234  and  _237
REMARK   91  A    between atoms: _240  and  _242
REMARK   92  A    between atoms: _242  and  _243
REMARK   93  A    between atoms: _242  and  _245
REMARK   94  A    between atoms: _245  and  _246
REMARK   95  A    between atoms: _249  and  _251
REMARK   96  A    between atoms: _251  and  _252
REMARK   97  A    between atoms: _251  and  _254
REMARK   98  A    between atoms: _257  and  _258
REMARK   99  A    between atoms: _263  and  _265
REMARK  100  A    between atoms: _265  and  _266
REMARK  101  A    between atoms: _265  and  _268
REMARK  102  A    between atoms: _268  and  _269
REMARK  103  A    between atoms: _274  and  _275
REMARK  104  A    between atoms: _278  and  _279
REMARK  105  A    between atoms: _284  and  _286
REMARK  106  A    between atoms: _286  and  _287
REMARK  107  A    between atoms: _286  and  _289
REMARK  108  A    between atoms: _289  and  _290
REMARK  109  A    between atoms: _293  and  _295
REMARK  110  A    between atoms: _295  and  _296
REMARK  111  A    between atoms: _295  and  _298
REMARK  112  A    between atoms: _298  and  _299
REMARK  113  A    between atoms: _302  and  _304
REMARK  114  A    between atoms: _304  and  _305
REMARK  115  A    between atoms: _307  and  _309
REMARK  116  A    between atoms: _309  and  _310
REMARK  117  A    between atoms: _309  and  _312
REMARK  118  A    between atoms: _312  and  _313
REMARK  119  A    between atoms: _313  and  _314
REMARK  120  A    between atoms: _314  and  _315
REMARK  121  A    between atoms: _325  and  _326
REMARK  122  A    between atoms: _331  and  _333
REMARK  123  A    between atoms: _333  and  _334
REMARK  124  A    between atoms: _333  and  _336
REMARK  125  A    between atoms: _336  and  _337
REMARK  126  A    between atoms: _340  and  _342
REMARK  127  A    between atoms: _342  and  _343
REMARK  128  A    between atoms: _342  and  _345
REMARK  129  A    between atoms: _348  and  _350
REMARK  130  A    between atoms: _350  and  _351
REMARK  131  A    between atoms: _350  and  _353
REMARK  132  A    between atoms: _353  and  _354
REMARK  133  A    between atoms: _357  and  _359
REMARK  134  A    between atoms: _359  and  _360
REMARK  135  A    between atoms: _359  and  _362
REMARK  136  A    between atoms: _362  and  _363
REMARK  137  A    between atoms: _366  and  _368
REMARK  138  A    between atoms: _368  and  _369
REMARK  139  A    between atoms: _371  and  _373
REMARK  140  A    between atoms: _373  and  _374
REMARK  141  A    between atoms: _377  and  _379
REMARK  142  A    between atoms: _379  and  _380
REMARK  143  A    between atoms: _379  and  _382
REMARK  144  A    between atoms: _382  and  _383
REMARK  145  A    between atoms: _383  and  _384
REMARK  146  A    between atoms: _389  and  _391
REMARK  147  A    between atoms: _391  and  _392
REMARK  148  A    between atoms: _391  and  _394
REMARK  149  A    between atoms: _394  and  _395
REMARK  150  A    between atoms: _400  and  _402
REMARK  151  A    between atoms: _402  and  _403
REMARK  152  A    between atoms: _402  and  _405
REMARK  153  A    between atoms: _405  and  _406
REMARK  154  A    between atoms: _408  and  _410
REMARK  155  A    between atoms: _410  and  _411
REMARK  156  A    between atoms: _410  and  _413
REMARK  157  A    between atoms: _416  and  _418
REMARK  158  A    between atoms: _418  and  _419
REMARK  159  A    between atoms: _418  and  _421
REMARK  160  A    between atoms: _421  and  _422
REMARK  161  A    between atoms: _424  and  _426
REMARK  162  A    between atoms: _426  and  _427
REMARK  163  A    between atoms: _430  and  _432
REMARK  164  A    between atoms: _432  and  _433
REMARK  165  A    between atoms: _432  and  _435
REMARK  166  A    between atoms: _435  and  _436
REMARK  167  A    between atoms: _446  and  _448
REMARK  168  A    between atoms: _448  and  _449
REMARK  169  A    between atoms: _448  and  _451
REMARK  170  A    between atoms: _454  and  _456
REMARK  171  A    between atoms: _456  and  _457
REMARK  172  A    between atoms: _456  and  _459
REMARK  173  A    between atoms: _459  and  _460
REMARK  174  A    between atoms: _460  and  _461
REMARK  175  A    between atoms: _466  and  _468
REMARK  176  A    between atoms: _468  and  _469
REMARK  177  A    between atoms: _471  and  _473
REMARK  178  A    between atoms: _473  and  _474
REMARK  179  A    between atoms: _477  and  _479
REMARK  180  A    between atoms: _479  and  _480
REMARK  181  A    between atoms: _479  and  _482
REMARK  182  A    between atoms: _482  and  _483
REMARK  183  A    between atoms: _486  and  _488
REMARK  184  A    between atoms: _488  and  _489
REMARK  185  A    between atoms: _491  and  _493
REMARK  186  A    between atoms: _493  and  _494
REMARK  187  A    between atoms: _496  and  _498
REMARK  188  A    between atoms: _498  and  _499
REMARK  189  A    between atoms: _498  and  _501
REMARK  190  A    between atoms: _501  and  _502
REMARK  191  A    between atoms: _502  and  _503
REMARK  192  A    between atoms: _503  and  _504
REMARK  193  A    between atoms: _504  and  _505
REMARK  194  A    between atoms: _509  and  _511
REMARK  195  A    between atoms: _511  and  _512
REMARK  196  A    between atoms: _511  and  _514
REMARK  197  A    between atoms: _514  and  _515
REMARK  198  A    between atoms: _515  and  _516
REMARK  199  A    between atoms: _516  and  _517
REMARK  200  A    between atoms: _526  and  _528
REMARK  201  A    between atoms: _528  and  _529
REMARK  202  A    between atoms: _528  and  _531
REMARK  203  A    between atoms: _531  and  _532
REMARK  204  A    between atoms: _537  and  _538
REMARK  205  A    between atoms: _540  and  _542
REMARK  206  A    between atoms: _542  and  _543
REMARK  207  A    between atoms: _542  and  _545
REMARK  208  A    between atoms: _545  and  _546
REMARK  209  A    between atoms: _556  and  _558
REMARK  210  A    between atoms: _558  and  _559
REMARK  211  A    between atoms: _558  and  _561
REMARK  212  A    between atoms: _561  and  _562
REMARK  213  A    between atoms: _564  and  _566
REMARK  214  A    between atoms: _566  and  _567
REMARK  215  A    between atoms: _566  and  _569
REMARK  216  A    between atoms: _569  and  _570
REMARK  217  A    between atoms: _573  and  _575
REMARK  218  A    between atoms: _575  and  _576
REMARK  219  A    between atoms: _575  and  _578
REMARK  220  A    between atoms: _581  and  _583
REMARK  221  A    between atoms: _583  and  _584
REMARK  222  A    between atoms: _583  and  _586
REMARK  223  A    between atoms: _586  and  _587
REMARK  224  A    between atoms: _590  and  _592
REMARK  225  A    between atoms: _592  and  _593
REMARK  226  A    between atoms: _592  and  _595
REMARK  227  A    between atoms: _598  and  _599
REMARK  228  A    between atoms: _604  and  _606
REMARK  229  A    between atoms: _606  and  _607
REMARK  230  A    between atoms: _606  and  _609
REMARK  231  A    between atoms: _609  and  _610
REMARK  232  A    between atoms: _615  and  _616
REMARK  233  A    between atoms: _619  and  _620
REMARK  234  A    between atoms: _625  and  _627
REMARK  235  A    between atoms: _627  and  _628
REMARK  236  A    between atoms: _627  and  _630
REMARK  237  A    between atoms: _630  and  _631
REMARK  238  A    between atoms: _634  and  _636
REMARK  239  A    between atoms: _636  and  _637
REMARK  240  A    between atoms: _636  and  _639
REMARK  241  A    between atoms: _639  and  _640
REMARK  242  A    between atoms: _643  and  _645
REMARK  243  A    between atoms: _645  and  _646
REMARK  244  A    between atoms: _648  and  _650
REMARK  245  A    between atoms: _650  and  _651
REMARK  246  A    between atoms: _650  and  _653
REMARK  247  A    between atoms: _653  and  _654
REMARK  248  A    between atoms: _654  and  _655
REMARK  249  A    between atoms: _655  and  _656
REMARK  250  A    between atoms: _665  and  _667
REMARK  251  A    between atoms: _667  and  _668
REMARK  252  A    between atoms: _667  and  _670
REMARK  253  A    between atoms: _670  and  _671
REMARK                            x       y       z     vdW  Elec       q    Type
REMARK                         _______ _______ _______ _____ _____    ______ ____
ROOT
ATOM      1  O   HOH     1     -14.195   3.008   3.891  0.00  0.00    +0.000 OA
ENDROOT
TORSDOF 0
REMARK  Name = ../refined-set-2016/3slz/3slz_pocket.pdb
REMARK  253 active torsions:
REMARK  status: ('A' for Active; 'I' for Inactive)
REMARK    1  A    between atoms: _2  and  _3
REMARK    2  A    between atoms: _9  and  _10
REMARK    3  A    between atoms: _15  and  _17
REMARK    4  A    between atoms: _17  and  _18
REMARK    5  A    between atoms: _17  and  _20
REMARK    6  A    between atoms: _20  and  _21
REMARK    7  A    between atoms: _24  and  _26
REMARK    8  A    between atoms: _26  and  _27
REMARK    9  A    between atoms: _26  and  _29
REMARK   10  A    between atoms: _32  and  _34
REMARK   11  A    between atoms: _34  and  _35
REMARK   12  A    between atoms: _34  and  _37
REMARK   13  A    between atoms: _37  and  _38
REMARK   14  A    between atoms: _41  and  _43
REMARK   15  A    between atoms: _43  and  _44
REMARK   16  A    between atoms: _43  and  _46
REMARK   17  A    between atoms: _46  and  _47
REMARK   18  A    between atoms: _50  and  _52
REMARK   19  A    between atoms: _52  and  _53
REMARK   20  A    between atoms: _55  and  _57
REMARK   21  A    between atoms: _57  and  _58
REMARK   22  A    between atoms: _61  and  _63
REMARK   23  A    between atoms: _63  and  _64
REMARK   24  A    between atoms: _63  and  _66
REMARK   25  A    between atoms: _66  and  _67
REMARK   26  A    between atoms: _67  and  _68
REMARK   27  A    between atoms: _73  and  _75
REMARK   28  A    between atoms: _75  and  _76
REMARK   29  A    between atoms: _75  and  _78
REMARK   30  A    between atoms: _78  and  _79
REMARK   31  A    between atoms: _84  and  _86
REMARK   32  A    between atoms: _86  and  _87
REMARK   33  A    between atoms: _86  and  _89
REMARK   34  A    between atoms: _89  and  _90
REMARK   35  A    between atoms: _92  and  _94
REMARK   36  A    between atoms: _94  and  _95
REMARK   37  A    between atoms: _94  and  _97
REMARK   38  A    between atoms: _100  and  _102
REMARK   39  A    between atoms: _102  and  _103
REMARK   40  A    between atoms: _102  and  _105
REMARK   41  A    between atoms: _105  and  _106
REMARK   42  A    between atoms: _108  and  _110
REMARK   43  A    between atoms: _110  and  _111
REMARK   44  A    between atoms: _114  and  _116
REMARK   45  A    between atoms: _116  and  _117
REMARK   46  A    between atoms: _116  and  _119
REMARK   47  A    between atoms: _119  and  _120
REMARK   48  A    between atoms: _130  and  _132
REMARK   49  A    between atoms: _132  and  _133
REMARK   50  A    between atoms: _132  and  _135
REMARK   51  A    between atoms: _138  and  _140
REMARK   52  A    between atoms: _140  and  _141
REMARK   53  A    between atoms: _140  and  _143
REMARK   54  A    between atoms: _143  and  _144
REMARK   55  A    between atoms: _144  and  _145
REMARK   56  A    between atoms: _150  and  _152
REMARK   57  A    between atoms: _152  and  _153
REMARK   58  A    between atoms: _155  and  _157
REMARK   59  A    between atoms: _157  and  _158
REMARK   60  A    between atoms: _161  and  _163
REMARK   61  A    between atoms: _163  and  _164
REMARK   62  A    between atoms: _163  and  _166
REMARK   63  A    between atoms: _166  and  _167
REMARK   64  A    between atoms: _170  and  _172
REMARK   65  A    between atoms: _172  and  _173
REMARK   66  A    between atoms: _175  and  _177
REMARK   67  A    between atoms: _177  and  _178
REMARK   68  A    between atoms: _180  and  _182
REMARK   69  A    between atoms: _182  and  _183
REMARK   70  A    between atoms: _182  and  _185
REMARK   71  A    between atoms: _185  and  _186
REMARK   72  A    between atoms: _186  and  _187
REMARK   73  A    between atoms: _187  and  _188
REMARK   74  A    between atoms: _188  and  _189
REMARK   75  A    between atoms: _193  and  _195
REMARK   76  A    between atoms: _195  and  _196
REMARK   77  A    between atoms: _195  and  _198
REMARK   78  A    between atoms: _198  and  _199
REMARK   79  A    between atoms: _204  and  _205
REMARK   80  A    between atoms: _207  and  _209
REMARK   81  A    between atoms: _209  and  _210
REMARK   82  A    between atoms: _209  and  _212
REMARK   83  A    between atoms: _212  and  _213
REMARK   84  A    between atoms: _223  and  _225
REMARK   85  A    between atoms: _225  and  _226
REMARK   86  A    between atoms: _225  and  _228
REMARK   87  A    between atoms: _228  and  _229
REMARK   88  A    between atoms: _232  and  _234
REMARK   89  A    between atoms: _234  and  _235
REMARK   90  A    between atoms: _234  and  _237
REMARK   91  A    between atoms: _240  and  _242
REMARK   92  A    between atoms: _242  and  _243
REMARK   93  A    between atoms: _242  and  _245
REMARK   94  A    between atoms: _245  and  _246
REMARK   95  A    between atoms: _249  and  _251
REMARK   96  A    between atoms: _251  and  _252
REMARK   97  A    between atoms: _251  and  _254
REMARK   98  A    between atoms: _257  and  _258
REMARK   99  A    between atoms: _263  and  _265
REMARK  100  A    between atoms: _265  and  _266
REMARK  101  A    between atoms: _265  and  _268
REMARK  102  A    between atoms: _268  and  _269
REMARK  103  A    between atoms: _274  and  _275
REMARK  104  A    between atoms: _278  and  _279
REMARK  105  A    between atoms: _284  and  _286
REMARK  106  A    between atoms: _286  and  _287
REMARK  107  A    between atoms: _286  and  _289
REMARK  108  A    between atoms: _289  and  _290
REMARK  109  A    between atoms: _293  and  _295
REMARK  110  A    between atoms: _295  and  _296
REMARK  111  A    between atoms: _295  and  _298
REMARK  112  A    between atoms: _298  and  _299
REMARK  113  A    between atoms: _302  and  _304
REMARK  114  A    between atoms: _304  and  _305
REMARK  115  A    between atoms: _307  and  _309
REMARK  116  A    between atoms: _309  and  _310
REMARK  117  A    between atoms: _309  and  _312
REMARK  118  A    between atoms: _312  and  _313
REMARK  119  A    between atoms: _313  and  _314
REMARK  120  A    between atoms: _314  and  _315
REMARK  121  A    between atoms: _325  and  _326
REMARK  122  A    between atoms: _331  and  _333
REMARK  123  A    between atoms: _333  and  _334
REMARK  124  A    between atoms: _333  and  _336
REMARK  125  A    between atoms: _336  and  _337
REMARK  126  A    between atoms: _340  and  _342
REMARK  127  A    between atoms: _342  and  _343
REMARK  128  A    between atoms: _342  and  _345
REMARK  129  A    between atoms: _348  and  _350
REMARK  130  A    between atoms: _350  and  _351
REMARK  131  A    between atoms: _350  and  _353
REMARK  132  A    between atoms: _353  and  _354
REMARK  133  A    between atoms: _357  and  _359
REMARK  134  A    between atoms: _359  and  _360
REMARK  135  A    between atoms: _359  and  _362
REMARK  136  A    between atoms: _362  and  _363
REMARK  137  A    between atoms: _366  and  _368
REMARK  138  A    between atoms: _368  and  _369
REMARK  139  A    between atoms: _371  and  _373
REMARK  140  A    between atoms: _373  and  _374
REMARK  141  A    between atoms: _377  and  _379
REMARK  142  A    between atoms: _379  and  _380
REMARK  143  A    between atoms: _379  and  _382
REMARK  144  A    between atoms: _382  and  _383
REMARK  145  A    between atoms: _383  and  _384
REMARK  146  A    between atoms: _389  and  _391
REMARK  147  A    between atoms: _391  and  _392
REMARK  148  A    between atoms: _391  and  _394
REMARK  149  A    between atoms: _394  and  _395
REMARK  150  A    between atoms: _400  and  _402
REMARK  151  A    between atoms: _402  and  _403
REMARK  152  A    between atoms: _402  and  _405
REMARK  153  A    between atoms: _405  and  _406
REMARK  154  A    between atoms: _408  and  _410
REMARK  155  A    between atoms: _410  and  _411
REMARK  156  A    between atoms: _410  and  _413
REMARK  157  A    between atoms: _416  and  _418
REMARK  158  A    between atoms: _418  and  _419
REMARK  159  A    between atoms: _418  and  _421
REMARK  160  A    between atoms: _421  and  _422
REMARK  161  A    between atoms: _424  and  _426
REMARK  162  A    between atoms: _426  and  _427
REMARK  163  A    between atoms: _430  and  _432
REMARK  164  A    between atoms: _432  and  _433
REMARK  165  A    between atoms: _432  and  _435
REMARK  166  A    between atoms: _435  and  _436
REMARK  167  A    between atoms: _446  and  _448
REMARK  168  A    between atoms: _448  and  _449
REMARK  169  A    between atoms: _448  and  _451
REMARK  170  A    between atoms: _454  and  _456
REMARK  171  A    between atoms: _456  and  _457
REMARK  172  A    between atoms: _456  and  _459
REMARK  173  A    between atoms: _459  and  _460
REMARK  174  A    between atoms: _460  and  _461
REMARK  175  A    between atoms: _466  and  _468
REMARK  176  A    between atoms: _468  and  _469
REMARK  177  A    between atoms: _471  and  _473
REMARK  178  A    between atoms: _473  and  _474
REMARK  179  A    between atoms: _477  and  _479
REMARK  180  A    between atoms: _479  and  _480
REMARK  181  A    between atoms: _479  and  _482
REMARK  182  A    between atoms: _482  and  _483
REMARK  183  A    between atoms: _486  and  _488
REMARK  184  A    between atoms: _488  and  _489
REMARK  185  A    between atoms: _491  and  _493
REMARK  186  A    between atoms: _493  and  _494
REMARK  187  A    between atoms: _496  and  _498
REMARK  188  A    between atoms: _498  and  _499
REMARK  189  A    between atoms: _498  and  _501
REMARK  190  A    between atoms: _501  and  _502
REMARK  191  A    between atoms: _502  and  _503
REMARK  192  A    between atoms: _503  and  _504
REMARK  193  A    between atoms: _504  and  _505
REMARK  194  A    between atoms: _509  and  _511
REMARK  195  A    between atoms: _511  and  _512
REMARK  196  A    between atoms: _511  and  _514
REMARK  197  A    between atoms: _514  and  _515
REMARK  198  A    between atoms: _515  and  _516
REMARK  199  A    between atoms: _516  and  _517
REMARK  200  A    between atoms: _526  and  _528
REMARK  201  A    between atoms: _528  and  _529
REMARK  202  A    between atoms: _528  and  _531
REMARK  203  A    between atoms: _531  and  _532
REMARK  204  A    between atoms: _537  and  _538
REMARK  205  A    between atoms: _540  and  _542
REMARK  206  A    between atoms: _542  and  _543
REMARK  207  A    between atoms: _542  and  _545
REMARK  208  A    between atoms: _545  and  _546
REMARK  209  A    between atoms: _556  and  _558
REMARK  210  A    between atoms: _558  and  _559
REMARK  211  A    between atoms: _558  and  _561
REMARK  212  A    between atoms: _561  and  _562
REMARK  213  A    between atoms: _564  and  _566
REMARK  214  A    between atoms: _566  and  _567
REMARK  215  A    between atoms: _566  and  _569
REMARK  216  A    between atoms: _569  and  _570
REMARK  217  A    between atoms: _573  and  _575
REMARK  218  A    between atoms: _575  and  _576
REMARK  219  A    between atoms: _575  and  _578
REMARK  220  A    between atoms: _581  and  _583
REMARK  221  A    between atoms: _583  and  _584
REMARK  222  A    between atoms: _583  and  _586
REMARK  223  A    between atoms: _586  and  _587
REMARK  224  A    between atoms: _590  and  _592
REMARK  225  A    between atoms: _592  and  _593
REMARK  226  A    between atoms: _592  and  _595
REMARK  227  A    between atoms: _598  and  _599
REMARK  228  A    between atoms: _604  and  _606
REMARK  229  A    between atoms: _606  and  _607
REMARK  230  A    between atoms: _606  and  _609
REMARK  231  A    between atoms: _609  and  _610
REMARK  232  A    between atoms: _615  and  _616
REMARK  233  A    between atoms: _619  and  _620
REMARK  234  A    between atoms: _625  and  _627
REMARK  235  A    between atoms: _627  and  _628
REMARK  236  A    between atoms: _627  and  _630
REMARK  237  A    between atoms: _630  and  _631
REMARK  238  A    between atoms: _634  and  _636
REMARK  239  A    between atoms: _636  and  _637
REMARK  240  A    between atoms: _636  and  _639
REMARK  241  A    between atoms: _639  and  _640
REMARK  242  A    between atoms: _643  and  _645
REMARK  243  A    between atoms: _645  and  _646
REMARK  244  A    between atoms: _648  and  _650
REMARK  245  A    between atoms: _650  and  _651
REMARK  246  A    between atoms: _650  and  _653
REMARK  247  A    between atoms: _653  and  _654
REMARK  248  A    between atoms: _654  and  _655
REMARK  249  A    between atoms: _655  and  _656
REMARK  250  A    between atoms: _665  and  _667
REMARK  251  A    between atoms: _667  and  _668
REMARK  252  A    between atoms: _667  and  _670
REMARK  253  A    between atoms: _670  and  _671
REMARK                            x       y       z     vdW  Elec       q    Type
REMARK                         _______ _______ _______ _____ _____    ______ ____
ROOT
ATOM      1  O   HOH     1       1.094  -5.080  20.591  0.00  0.00    +0.000 OA
ENDROOT
TORSDOF 0
REMARK  Name = ../refined-set-2016/3slz/3slz_pocket.pdb
REMARK  253 active torsions:
REMARK  status: ('A' for Active; 'I' for Inactive)
REMARK    1  A    between atoms: _2  and  _3
REMARK    2  A    between atoms: _9  and  _10
REMARK    3  A    between atoms: _15  and  _17
REMARK    4  A    between atoms: _17  and  _18
REMARK    5  A    between atoms: _17  and  _20
REMARK    6  A    between atoms: _20  and  _21
REMARK    7  A    between atoms: _24  and  _26
REMARK    8  A    between atoms: _26  and  _27
REMARK    9  A    between atoms: _26  and  _29
REMARK   10  A    between atoms: _32  and  _34
REMARK   11  A    between atoms: _34  and  _35
REMARK   12  A    between atoms: _34  and  _37
REMARK   13  A    between atoms: _37  and  _38
REMARK   14  A    between atoms: _41  and  _43
REMARK   15  A    between atoms: _43  and  _44
REMARK   16  A    between atoms: _43  and  _46
REMARK   17  A    between atoms: _46  and  _47
REMARK   18  A    between atoms: _50  and  _52
REMARK   19  A    between atoms: _52  and  _53
REMARK   20  A    between atoms: _55  and  _57
REMARK   21  A    between atoms: _57  and  _58
REMARK   22  A    between atoms: _61  and  _63
REMARK   23  A    between atoms: _63  and  _64
REMARK   24  A    between atoms: _63  and  _66
REMARK   25  A    between atoms: _66  and  _67
REMARK   26  A    between atoms: _67  and  _68
REMARK   27  A    between atoms: _73  and  _75
REMARK   28  A    between atoms: _75  and  _76
REMARK   29  A    between atoms: _75  and  _78
REMARK   30  A    between atoms: _78  and  _79
REMARK   31  A    between atoms: _84  and  _86
REMARK   32  A    between atoms: _86  and  _87
REMARK   33  A    between atoms: _86  and  _89
REMARK   34  A    between atoms: _89  and  _90
REMARK   35  A    between atoms: _92  and  _94
REMARK   36  A    between atoms: _94  and  _95
REMARK   37  A    between atoms: _94  and  _97
REMARK   38  A    between atoms: _100  and  _102
REMARK   39  A    between atoms: _102  and  _103
REMARK   40  A    between atoms: _102  and  _105
REMARK   41  A    between atoms: _105  and  _106
REMARK   42  A    between atoms: _108  and  _110
REMARK   43  A    between atoms: _110  and  _111
REMARK   44  A    between atoms: _114  and  _116
REMARK   45  A    between atoms: _116  and  _117
REMARK   46  A    between atoms: _116  and  _119
REMARK   47  A    between atoms: _119  and  _120
REMARK   48  A    between atoms: _130  and  _132
REMARK   49  A    between atoms: _132  and  _133
REMARK   50  A    between atoms: _132  and  _135
REMARK   51  A    between atoms: _138  and  _140
REMARK   52  A    between atoms: _140  and  _141
REMARK   53  A    between atoms: _140  and  _143
REMARK   54  A    between atoms: _143  and  _144
REMARK   55  A    between atoms: _144  and  _145
REMARK   56  A    between atoms: _150  and  _152
REMARK   57  A    between atoms: _152  and  _153
REMARK   58  A    between atoms: _155  and  _157
REMARK   59  A    between atoms: _157  and  _158
REMARK   60  A    between atoms: _161  and  _163
REMARK   61  A    between atoms: _163  and  _164
REMARK   62  A    between atoms: _163  and  _166
REMARK   63  A    between atoms: _166  and  _167
REMARK   64  A    between atoms: _170  and  _172
REMARK   65  A    between atoms: _172  and  _173
REMARK   66  A    between atoms: _175  and  _177
REMARK   67  A    between atoms: _177  and  _178
REMARK   68  A    between atoms: _180  and  _182
REMARK   69  A    between atoms: _182  and  _183
REMARK   70  A    between atoms: _182  and  _185
REMARK   71  A    between atoms: _185  and  _186
REMARK   72  A    between atoms: _186  and  _187
REMARK   73  A    between atoms: _187  and  _188
REMARK   74  A    between atoms: _188  and  _189
REMARK   75  A    between atoms: _193  and  _195
REMARK   76  A    between atoms: _195  and  _196
REMARK   77  A    between atoms: _195  and  _198
REMARK   78  A    between atoms: _198  and  _199
REMARK   79  A    between atoms: _204  and  _205
REMARK   80  A    between atoms: _207  and  _209
REMARK   81  A    between atoms: _209  and  _210
REMARK   82  A    between atoms: _209  and  _212
REMARK   83  A    between atoms: _212  and  _213
REMARK   84  A    between atoms: _223  and  _225
REMARK   85  A    between atoms: _225  and  _226
REMARK   86  A    between atoms: _225  and  _228
REMARK   87  A    between atoms: _228  and  _229
REMARK   88  A    between atoms: _232  and  _234
REMARK   89  A    between atoms: _234  and  _235
REMARK   90  A    between atoms: _234  and  _237
REMARK   91  A    between atoms: _240  and  _242
REMARK   92  A    between atoms: _242  and  _243
REMARK   93  A    between atoms: _242  and  _245
REMARK   94  A    between atoms: _245  and  _246
REMARK   95  A    between atoms: _249  and  _251
REMARK   96  A    between atoms: _251  and  _252
REMARK   97  A    between atoms: _251  and  _254
REMARK   98  A    between atoms: _257  and  _258
REMARK   99  A    between atoms: _263  and  _265
REMARK  100  A    between atoms: _265  and  _266
REMARK  101  A    between atoms: _265  and  _268
REMARK  102  A    between atoms: _268  and  _269
REMARK  103  A    between atoms: _274  and  _275
REMARK  104  A    between atoms: _278  and  _279
REMARK  105  A    between atoms: _284  and  _286
REMARK  106  A    between atoms: _286  and  _287
REMARK  107  A    between atoms: _286  and  _289
REMARK  108  A    between atoms: _289  and  _290
REMARK  109  A    between atoms: _293  and  _295
REMARK  110  A    between atoms: _295  and  _296
REMARK  111  A    between atoms: _295  and  _298
REMARK  112  A    between atoms: _298  and  _299
REMARK  113  A    between atoms: _302  and  _304
REMARK  114  A    between atoms: _304  and  _305
REMARK  115  A    between atoms: _307  and  _309
REMARK  116  A    between atoms: _309  and  _310
REMARK  117  A    between atoms: _309  and  _312
REMARK  118  A    between atoms: _312  and  _313
REMARK  119  A    between atoms: _313  and  _314
REMARK  120  A    between atoms: _314  and  _315
REMARK  121  A    between atoms: _325  and  _326
REMARK  122  A    between atoms: _331  and  _333
REMARK  123  A    between atoms: _333  and  _334
REMARK  124  A    between atoms: _333  and  _336
REMARK  125  A    between atoms: _336  and  _337
REMARK  126  A    between atoms: _340  and  _342
REMARK  127  A    between atoms: _342  and  _343
REMARK  128  A    between atoms: _342  and  _345
REMARK  129  A    between atoms: _348  and  _350
REMARK  130  A    between atoms: _350  and  _351
REMARK  131  A    between atoms: _350  and  _353
REMARK  132  A    between atoms: _353  and  _354
REMARK  133  A    between atoms: _357  and  _359
REMARK  134  A    between atoms: _359  and  _360
REMARK  135  A    between atoms: _359  and  _362
REMARK  136  A    between atoms: _362  and  _363
REMARK  137  A    between atoms: _366  and  _368
REMARK  138  A    between atoms: _368  and  _369
REMARK  139  A    between atoms: _371  and  _373
REMARK  140  A    between atoms: _373  and  _374
REMARK  141  A    between atoms: _377  and  _379
REMARK  142  A    between atoms: _379  and  _380
REMARK  143  A    between atoms: _379  and  _382
REMARK  144  A    between atoms: _382  and  _383
REMARK  145  A    between atoms: _383  and  _384
REMARK  146  A    between atoms: _389  and  _391
REMARK  147  A    between atoms: _391  and  _392
REMARK  148  A    between atoms: _391  and  _394
REMARK  149  A    between atoms: _394  and  _395
REMARK  150  A    between atoms: _400  and  _402
REMARK  151  A    between atoms: _402  and  _403
REMARK  152  A    between atoms: _402  and  _405
REMARK  153  A    between atoms: _405  and  _406
REMARK  154  A    between atoms: _408  and  _410
REMARK  155  A    between atoms: _410  and  _411
REMARK  156  A    between atoms: _410  and  _413
REMARK  157  A    between atoms: _416  and  _418
REMARK  158  A    between atoms: _418  and  _419
REMARK  159  A    between atoms: _418  and  _421
REMARK  160  A    between atoms: _421  and  _422
REMARK  161  A    between atoms: _424  and  _426
REMARK  162  A    between atoms: _426  and  _427
REMARK  163  A    between atoms: _430  and  _432
REMARK  164  A    between atoms: _432  and  _433
REMARK  165  A    between atoms: _432  and  _435
REMARK  166  A    between atoms: _435  and  _436
REMARK  167  A    between atoms: _446  and  _448
REMARK  168  A    between atoms: _448  and  _449
REMARK  169  A    between atoms: _448  and  _451
REMARK  170  A    between atoms: _454  and  _456
REMARK  171  A    between atoms: _456  and  _457
REMARK  172  A    between atoms: _456  and  _459
REMARK  173  A    between atoms: _459  and  _460
REMARK  174  A    between atoms: _460  and  _461
REMARK  175  A    between atoms: _466  and  _468
REMARK  176  A    between atoms: _468  and  _469
REMARK  177  A    between atoms: _471  and  _473
REMARK  178  A    between atoms: _473  and  _474
REMARK  179  A    between atoms: _477  and  _479
REMARK  180  A    between atoms: _479  and  _480
REMARK  181  A    between atoms: _479  and  _482
REMARK  182  A    between atoms: _482  and  _483
REMARK  183  A    between atoms: _486  and  _488
REMARK  184  A    between atoms: _488  and  _489
REMARK  185  A    between atoms: _491  and  _493
REMARK  186  A    between atoms: _493  and  _494
REMARK  187  A    between atoms: _496  and  _498
REMARK  188  A    between atoms: _498  and  _499
REMARK  189  A    between atoms: _498  and  _501
REMARK  190  A    between atoms: _501  and  _502
REMARK  191  A    between atoms: _502  and  _503
REMARK  192  A    between atoms: _503  and  _504
REMARK  193  A    between atoms: _504  and  _505
REMARK  194  A    between atoms: _509  and  _511
REMARK  195  A    between atoms: _511  and  _512
REMARK  196  A    between atoms: _511  and  _514
REMARK  197  A    between atoms: _514  and  _515
REMARK  198  A    between atoms: _515  and  _516
REMARK  199  A    between atoms: _516  and  _517
REMARK  200  A    between atoms: _526  and  _528
REMARK  201  A    between atoms: _528  and  _529
REMARK  202  A    between atoms: _528  and  _531
REMARK  203  A    between atoms: _531  and  _532
REMARK  204  A    between atoms: _537  and  _538
REMARK  205  A    between atoms: _540  and  _542
REMARK  206  A    between atoms: _542  and  _543
REMARK  207  A    between atoms: _542  and  _545
REMARK  208  A    between atoms: _545  and  _546
REMARK  209  A    between atoms: _556  and  _558
REMARK  210  A    between atoms: _558  and  _559
REMARK  211  A    between atoms: _558  and  _561
REMARK  212  A    between atoms: _561  and  _562
REMARK  213  A    between atoms: _564  and  _566
REMARK  214  A    between atoms: _566  and  _567
REMARK  215  A    between atoms: _566  and  _569
REMARK  216  A    between atoms: _569  and  _570
REMARK  217  A    between atoms: _573  and  _575
REMARK  218  A    between atoms: _575  and  _576
REMARK  219  A    between atoms: _575  and  _578
REMARK  220  A    between atoms: _581  and  _583
REMARK  221  A    between atoms: _583  and  _584
REMARK  222  A    between atoms: _583  and  _586
REMARK  223  A    between atoms: _586  and  _587
REMARK  224  A    between atoms: _590  and  _592
REMARK  225  A    between atoms: _592  and  _593
REMARK  226  A    between atoms: _592  and  _595
REMARK  227  A    between atoms: _598  and  _599
REMARK  228  A    between atoms: _604  and  _606
REMARK  229  A    between atoms: _606  and  _607
REMARK  230  A    between atoms: _606  and  _609
REMARK  231  A    between atoms: _609  and  _610
REMARK  232  A    between atoms: _615  and  _616
REMARK  233  A    between atoms: _619  and  _620
REMARK  234  A    between atoms: _625  and  _627
REMARK  235  A    between atoms: _627  and  _628
REMARK  236  A    between atoms: _627  and  _630
REMARK  237  A    between atoms: _630  and  _631
REMARK  238  A    between atoms: _634  and  _636
REMARK  239  A    between atoms: _636  and  _637
REMARK  240  A    between atoms: _636  and  _639
REMARK  241  A    between atoms: _639  and  _640
REMARK  242  A    between atoms: _643  and  _645
REMARK  243  A    between atoms: _645  and  _646
REMARK  244  A    between atoms: _648  and  _650
REMARK  245  A    between atoms: _650  and  _651
REMARK  246  A    between atoms: _650  and  _653
REMARK  247  A    between atoms: _653  and  _654
REMARK  248  A    between atoms: _654  and  _655
REMARK  249  A    between atoms: _655  and  _656
REMARK  250  A    between atoms: _665  and  _667
REMARK  251  A    between atoms: _667  and  _668
REMARK  252  A    between atoms: _667  and  _670
REMARK  253  A    between atoms: _670  and  _671
REMARK                            x       y       z     vdW  Elec       q    Type
REMARK                         _______ _______ _______ _____ _____    ______ ____
ROOT
ATOM      1  O   HOH     1     -11.485  12.423  -0.712  0.00  0.00    +0.000 OA
ENDROOT
TORSDOF 0
REMARK  Name = ../refined-set-2016/3slz/3slz_pocket.pdb
REMARK  253 active torsions:
REMARK  status: ('A' for Active; 'I' for Inactive)
REMARK    1  A    between atoms: _2  and  _3
REMARK    2  A    between atoms: _9  and  _10
REMARK    3  A    between atoms: _15  and  _17
REMARK    4  A    between atoms: _17  and  _18
REMARK    5  A    between atoms: _17  and  _20
REMARK    6  A    between atoms: _20  and  _21
REMARK    7  A    between atoms: _24  and  _26
REMARK    8  A    between atoms: _26  and  _27
REMARK    9  A    between atoms: _26  and  _29
REMARK   10  A    between atoms: _32  and  _34
REMARK   11  A    between atoms: _34  and  _35
REMARK   12  A    between atoms: _34  and  _37
REMARK   13  A    between atoms: _37  and  _38
REMARK   14  A    between atoms: _41  and  _43
REMARK   15  A    between atoms: _43  and  _44
REMARK   16  A    between atoms: _43  and  _46
REMARK   17  A    between atoms: _46  and  _47
REMARK   18  A    between atoms: _50  and  _52
REMARK   19  A    between atoms: _52  and  _53
REMARK   20  A    between atoms: _55  and  _57
REMARK   21  A    between atoms: _57  and  _58
REMARK   22  A    between atoms: _61  and  _63
REMARK   23  A    between atoms: _63  and  _64
REMARK   24  A    between atoms: _63  and  _66
REMARK   25  A    between atoms: _66  and  _67
REMARK   26  A    between atoms: _67  and  _68
REMARK   27  A    between atoms: _73  and  _75
REMARK   28  A    between atoms: _75  and  _76
REMARK   29  A    between atoms: _75  and  _78
REMARK   30  A    between atoms: _78  and  _79
REMARK   31  A    between atoms: _84  and  _86
REMARK   32  A    between atoms: _86  and  _87
REMARK   33  A    between atoms: _86  and  _89
REMARK   34  A    between atoms: _89  and  _90
REMARK   35  A    between atoms: _92  and  _94
REMARK   36  A    between atoms: _94  and  _95
REMARK   37  A    between atoms: _94  and  _97
REMARK   38  A    between atoms: _100  and  _102
REMARK   39  A    between atoms: _102  and  _103
REMARK   40  A    between atoms: _102  and  _105
REMARK   41  A    between atoms: _105  and  _106
REMARK   42  A    between atoms: _108  and  _110
REMARK   43  A    between atoms: _110  and  _111
REMARK   44  A    between atoms: _114  and  _116
REMARK   45  A    between atoms: _116  and  _117
REMARK   46  A    between atoms: _116  and  _119
REMARK   47  A    between atoms: _119  and  _120
REMARK   48  A    between atoms: _130  and  _132
REMARK   49  A    between atoms: _132  and  _133
REMARK   50  A    between atoms: _132  and  _135
REMARK   51  A    between atoms: _138  and  _140
REMARK   52  A    between atoms: _140  and  _141
REMARK   53  A    between atoms: _140  and  _143
REMARK   54  A    between atoms: _143  and  _144
REMARK   55  A    between atoms: _144  and  _145
REMARK   56  A    between atoms: _150  and  _152
REMARK   57  A    between atoms: _152  and  _153
REMARK   58  A    between atoms: _155  and  _157
REMARK   59  A    between atoms: _157  and  _158
REMARK   60  A    between atoms: _161  and  _163
REMARK   61  A    between atoms: _163  and  _164
REMARK   62  A    between atoms: _163  and  _166
REMARK   63  A    between atoms: _166  and  _167
REMARK   64  A    between atoms: _170  and  _172
REMARK   65  A    between atoms: _172  and  _173
REMARK   66  A    between atoms: _175  and  _177
REMARK   67  A    between atoms: _177  and  _178
REMARK   68  A    between atoms: _180  and  _182
REMARK   69  A    between atoms: _182  and  _183
REMARK   70  A    between atoms: _182  and  _185
REMARK   71  A    between atoms: _185  and  _186
REMARK   72  A    between atoms: _186  and  _187
REMARK   73  A    between atoms: _187  and  _188
REMARK   74  A    between atoms: _188  and  _189
REMARK   75  A    between atoms: _193  and  _195
REMARK   76  A    between atoms: _195  and  _196
REMARK   77  A    between atoms: _195  and  _198
REMARK   78  A    between atoms: _198  and  _199
REMARK   79  A    between atoms: _204  and  _205
REMARK   80  A    between atoms: _207  and  _209
REMARK   81  A    between atoms: _209  and  _210
REMARK   82  A    between atoms: _209  and  _212
REMARK   83  A    between atoms: _212  and  _213
REMARK   84  A    between atoms: _223  and  _225
REMARK   85  A    between atoms: _225  and  _226
REMARK   86  A    between atoms: _225  and  _228
REMARK   87  A    between atoms: _228  and  _229
REMARK   88  A    between atoms: _232  and  _234
REMARK   89  A    between atoms: _234  and  _235
REMARK   90  A    between atoms: _234  and  _237
REMARK   91  A    between atoms: _240  and  _242
REMARK   92  A    between atoms: _242  and  _243
REMARK   93  A    between atoms: _242  and  _245
REMARK   94  A    between atoms: _245  and  _246
REMARK   95  A    between atoms: _249  and  _251
REMARK   96  A    between atoms: _251  and  _252
REMARK   97  A    between atoms: _251  and  _254
REMARK   98  A    between atoms: _257  and  _258
REMARK   99  A    between atoms: _263  and  _265
REMARK  100  A    between atoms: _265  and  _266
REMARK  101  A    between atoms: _265  and  _268
REMARK  102  A    between atoms: _268  and  _269
REMARK  103  A    between atoms: _274  and  _275
REMARK  104  A    between atoms: _278  and  _279
REMARK  105  A    between atoms: _284  and  _286
REMARK  106  A    between atoms: _286  and  _287
REMARK  107  A    between atoms: _286  and  _289
REMARK  108  A    between atoms: _289  and  _290
REMARK  109  A    between atoms: _293  and  _295
REMARK  110  A    between atoms: _295  and  _296
REMARK  111  A    between atoms: _295  and  _298
REMARK  112  A    between atoms: _298  and  _299
REMARK  113  A    between atoms: _302  and  _304
REMARK  114  A    between atoms: _304  and  _305
REMARK  115  A    between atoms: _307  and  _309
REMARK  116  A    between atoms: _309  and  _310
REMARK  117  A    between atoms: _309  and  _312
REMARK  118  A    between atoms: _312  and  _313
REMARK  119  A    between atoms: _313  and  _314
REMARK  120  A    between atoms: _314  and  _315
REMARK  121  A    between atoms: _325  and  _326
REMARK  122  A    between atoms: _331  and  _333
REMARK  123  A    between atoms: _333  and  _334
REMARK  124  A    between atoms: _333  and  _336
REMARK  125  A    between atoms: _336  and  _337
REMARK  126  A    between atoms: _340  and  _342
REMARK  127  A    between atoms: _342  and  _343
REMARK  128  A    between atoms: _342  and  _345
REMARK  129  A    between atoms: _348  and  _350
REMARK  130  A    between atoms: _350  and  _351
REMARK  131  A    between atoms: _350  and  _353
REMARK  132  A    between atoms: _353  and  _354
REMARK  133  A    between atoms: _357  and  _359
REMARK  134  A    between atoms: _359  and  _360
REMARK  135  A    between atoms: _359  and  _362
REMARK  136  A    between atoms: _362  and  _363
REMARK  137  A    between atoms: _366  and  _368
REMARK  138  A    between atoms: _368  and  _369
REMARK  139  A    between atoms: _371  and  _373
REMARK  140  A    between atoms: _373  and  _374
REMARK  141  A    between atoms: _377  and  _379
REMARK  142  A    between atoms: _379  and  _380
REMARK  143  A    between atoms: _379  and  _382
REMARK  144  A    between atoms: _382  and  _383
REMARK  145  A    between atoms: _383  and  _384
REMARK  146  A    between atoms: _389  and  _391
REMARK  147  A    between atoms: _391  and  _392
REMARK  148  A    between atoms: _391  and  _394
REMARK  149  A    between atoms: _394  and  _395
REMARK  150  A    between atoms: _400  and  _402
REMARK  151  A    between atoms: _402  and  _403
REMARK  152  A    between atoms: _402  and  _405
REMARK  153  A    between atoms: _405  and  _406
REMARK  154  A    between atoms: _408  and  _410
REMARK  155  A    between atoms: _410  and  _411
REMARK  156  A    between atoms: _410  and  _413
REMARK  157  A    between atoms: _416  and  _418
REMARK  158  A    between atoms: _418  and  _419
REMARK  159  A    between atoms: _418  and  _421
REMARK  160  A    between atoms: _421  and  _422
REMARK  161  A    between atoms: _424  and  _426
REMARK  162  A    between atoms: _426  and  _427
REMARK  163  A    between atoms: _430  and  _432
REMARK  164  A    between atoms: _432  and  _433
REMARK  165  A    between atoms: _432  and  _435
REMARK  166  A    between atoms: _435  and  _436
REMARK  167  A    between atoms: _446  and  _448
REMARK  168  A    between atoms: _448  and  _449
REMARK  169  A    between atoms: _448  and  _451
REMARK  170  A    between atoms: _454  and  _456
REMARK  171  A    between atoms: _456  and  _457
REMARK  172  A    between atoms: _456  and  _459
REMARK  173  A    between atoms: _459  and  _460
REMARK  174  A    between atoms: _460  and  _461
REMARK  175  A    between atoms: _466  and  _468
REMARK  176  A    between atoms: _468  and  _469
REMARK  177  A    between atoms: _471  and  _473
REMARK  178  A    between atoms: _473  and  _474
REMARK  179  A    between atoms: _477  and  _479
REMARK  180  A    between atoms: _479  and  _480
REMARK  181  A    between atoms: _479  and  _482
REMARK  182  A    between atoms: _482  and  _483
REMARK  183  A    between atoms: _486  and  _488
REMARK  184  A    between atoms: _488  and  _489
REMARK  185  A    between atoms: _491  and  _493
REMARK  186  A    between atoms: _493  and  _494
REMARK  187  A    between atoms: _496  and  _498
REMARK  188  A    between atoms: _498  and  _499
REMARK  189  A    between atoms: _498  and  _501
REMARK  190  A    between atoms: _501  and  _502
REMARK  191  A    between atoms: _502  and  _503
REMARK  192  A    between atoms: _503  and  _504
REMARK  193  A    between atoms: _504  and  _505
REMARK  194  A    between atoms: _509  and  _511
REMARK  195  A    between atoms: _511  and  _512
REMARK  196  A    between atoms: _511  and  _514
REMARK  197  A    between atoms: _514  and  _515
REMARK  198  A    between atoms: _515  and  _516
REMARK  199  A    between atoms: _516  and  _517
REMARK  200  A    between atoms: _526  and  _528
REMARK  201  A    between atoms: _528  and  _529
REMARK  202  A    between atoms: _528  and  _531
REMARK  203  A    between atoms: _531  and  _532
REMARK  204  A    between atoms: _537  and  _538
REMARK  205  A    between atoms: _540  and  _542
REMARK  206  A    between atoms: _542  and  _543
REMARK  207  A    between atoms: _542  and  _545
REMARK  208  A    between atoms: _545  and  _546
REMARK  209  A    between atoms: _556  and  _558
REMARK  210  A    between atoms: _558  and  _559
REMARK  211  A    between atoms: _558  and  _561
REMARK  212  A    between atoms: _561  and  _562
REMARK  213  A    between atoms: _564  and  _566
REMARK  214  A    between atoms: _566  and  _567
REMARK  215  A    between atoms: _566  and  _569
REMARK  216  A    between atoms: _569  and  _570
REMARK  217  A    between atoms: _573  and  _575
REMARK  218  A    between atoms: _575  and  _576
REMARK  219  A    between atoms: _575  and  _578
REMARK  220  A    between atoms: _581  and  _583
REMARK  221  A    between atoms: _583  and  _584
REMARK  222  A    between atoms: _583  and  _586
REMARK  223  A    between atoms: _586  and  _587
REMARK  224  A    between atoms: _590  and  _592
REMARK  225  A    between atoms: _592  and  _593
REMARK  226  A    between atoms: _592  and  _595
REMARK  227  A    between atoms: _598  and  _599
REMARK  228  A    between atoms: _604  and  _606
REMARK  229  A    between atoms: _606  and  _607
REMARK  230  A    between atoms: _606  and  _609
REMARK  231  A    between atoms: _609  and  _610
REMARK  232  A    between atoms: _615  and  _616
REMARK  233  A    between atoms: _619  and  _620
REMARK  234  A    between atoms: _625  and  _627
REMARK  235  A    between atoms: _627  and  _628
REMARK  236  A    between atoms: _627  and  _630
REMARK  237  A    between atoms: _630  and  _631
REMARK  238  A    between atoms: _634  and  _636
REMARK  239  A    between atoms: _636  and  _637
REMARK  240  A    between atoms: _636  and  _639
REMARK  241  A    between atoms: _639  and  _640
REMARK  242  A    between atoms: _643  and  _645
REMARK  243  A    between atoms: _645  and  _646
REMARK  244  A    between atoms: _648  and  _650
REMARK  245  A    between atoms: _650  and  _651
REMARK  246  A    between atoms: _650  and  _653
REMARK  247  A    between atoms: _653  and  _654
REMARK  248  A    between atoms: _654  and  _655
REMARK  249  A    between atoms: _655  and  _656
REMARK  250  A    between atoms: _665  and  _667
REMARK  251  A    between atoms: _667  and  _668
REMARK  252  A    between atoms: _667  and  _670
REMARK  253  A    between atoms: _670  and  _671
REMARK                            x       y       z     vdW  Elec       q    Type
REMARK                         _______ _______ _______ _____ _____    ______ ____
ROOT
ATOM      1  O   HOH     1      -1.228  11.150  14.724  0.00  0.00    +0.000 OA
ENDROOT
TORSDOF 0
REMARK  Name = ../refined-set-2016/3slz/3slz_pocket.pdb
REMARK  253 active torsions:
REMARK  status: ('A' for Active; 'I' for Inactive)
REMARK    1  A    between atoms: _2  and  _3
REMARK    2  A    between atoms: _9  and  _10
REMARK    3  A    between atoms: _15  and  _17
REMARK    4  A    between atoms: _17  and  _18
REMARK    5  A    between atoms: _17  and  _20
REMARK    6  A    between atoms: _20  and  _21
REMARK    7  A    between atoms: _24  and  _26
REMARK    8  A    between atoms: _26  and  _27
REMARK    9  A    between atoms: _26  and  _29
REMARK   10  A    between atoms: _32  and  _34
REMARK   11  A    between atoms: _34  and  _35
REMARK   12  A    between atoms: _34  and  _37
REMARK   13  A    between atoms: _37  and  _38
REMARK   14  A    between atoms: _41  and  _43
REMARK   15  A    between atoms: _43  and  _44
REMARK   16  A    between atoms: _43  and  _46
REMARK   17  A    between atoms: _46  and  _47
REMARK   18  A    between atoms: _50  and  _52
REMARK   19  A    between atoms: _52  and  _53
REMARK   20  A    between atoms: _55  and  _57
REMARK   21  A    between atoms: _57  and  _58
REMARK   22  A    between atoms: _61  and  _63
REMARK   23  A    between atoms: _63  and  _64
REMARK   24  A    between atoms: _63  and  _66
REMARK   25  A    between atoms: _66  and  _67
REMARK   26  A    between atoms: _67  and  _68
REMARK   27  A    between atoms: _73  and  _75
REMARK   28  A    between atoms: _75  and  _76
REMARK   29  A    between atoms: _75  and  _78
REMARK   30  A    between atoms: _78  and  _79
REMARK   31  A    between atoms: _84  and  _86
REMARK   32  A    between atoms: _86  and  _87
REMARK   33  A    between atoms: _86  and  _89
REMARK   34  A    between atoms: _89  and  _90
REMARK   35  A    between atoms: _92  and  _94
REMARK   36  A    between atoms: _94  and  _95
REMARK   37  A    between atoms: _94  and  _97
REMARK   38  A    between atoms: _100  and  _102
REMARK   39  A    between atoms: _102  and  _103
REMARK   40  A    between atoms: _102  and  _105
REMARK   41  A    between atoms: _105  and  _106
REMARK   42  A    between atoms: _108  and  _110
REMARK   43  A    between atoms: _110  and  _111
REMARK   44  A    between atoms: _114  and  _116
REMARK   45  A    between atoms: _116  and  _117
REMARK   46  A    between atoms: _116  and  _119
REMARK   47  A    between atoms: _119  and  _120
REMARK   48  A    between atoms: _130  and  _132
REMARK   49  A    between atoms: _132  and  _133
REMARK   50  A    between atoms: _132  and  _135
REMARK   51  A    between atoms: _138  and  _140
REMARK   52  A    between atoms: _140  and  _141
REMARK   53  A    between atoms: _140  and  _143
REMARK   54  A    between atoms: _143  and  _144
REMARK   55  A    between atoms: _144  and  _145
REMARK   56  A    between atoms: _150  and  _152
REMARK   57  A    between atoms: _152  and  _153
REMARK   58  A    between atoms: _155  and  _157
REMARK   59  A    between atoms: _157  and  _158
REMARK   60  A    between atoms: _161  and  _163
REMARK   61  A    between atoms: _163  and  _164
REMARK   62  A    between atoms: _163  and  _166
REMARK   63  A    between atoms: _166  and  _167
REMARK   64  A    between atoms: _170  and  _172
REMARK   65  A    between atoms: _172  and  _173
REMARK   66  A    between atoms: _175  and  _177
REMARK   67  A    between atoms: _177  and  _178
REMARK   68  A    between atoms: _180  and  _182
REMARK   69  A    between atoms: _182  and  _183
REMARK   70  A    between atoms: _182  and  _185
REMARK   71  A    between atoms: _185  and  _186
REMARK   72  A    between atoms: _186  and  _187
REMARK   73  A    between atoms: _187  and  _188
REMARK   74  A    between atoms: _188  and  _189
REMARK   75  A    between atoms: _193  and  _195
REMARK   76  A    between atoms: _195  and  _196
REMARK   77  A    between atoms: _195  and  _198
REMARK   78  A    between atoms: _198  and  _199
REMARK   79  A    between atoms: _204  and  _205
REMARK   80  A    between atoms: _207  and  _209
REMARK   81  A    between atoms: _209  and  _210
REMARK   82  A    between atoms: _209  and  _212
REMARK   83  A    between atoms: _212  and  _213
REMARK   84  A    between atoms: _223  and  _225
REMARK   85  A    between atoms: _225  and  _226
REMARK   86  A    between atoms: _225  and  _228
REMARK   87  A    between atoms: _228  and  _229
REMARK   88  A    between atoms: _232  and  _234
REMARK   89  A    between atoms: _234  and  _235
REMARK   90  A    between atoms: _234  and  _237
REMARK   91  A    between atoms: _240  and  _242
REMARK   92  A    between atoms: _242  and  _243
REMARK   93  A    between atoms: _242  and  _245
REMARK   94  A    between atoms: _245  and  _246
REMARK   95  A    between atoms: _249  and  _251
REMARK   96  A    between atoms: _251  and  _252
REMARK   97  A    between atoms: _251  and  _254
REMARK   98  A    between atoms: _257  and  _258
REMARK   99  A    between atoms: _263  and  _265
REMARK  100  A    between atoms: _265  and  _266
REMARK  101  A    between atoms: _265  and  _268
REMARK  102  A    between atoms: _268  and  _269
REMARK  103  A    between atoms: _274  and  _275
REMARK  104  A    between atoms: _278  and  _279
REMARK  105  A    between atoms: _284  and  _286
REMARK  106  A    between atoms: _286  and  _287
REMARK  107  A    between atoms: _286  and  _289
REMARK  108  A    between atoms: _289  and  _290
REMARK  109  A    between atoms: _293  and  _295
REMARK  110  A    between atoms: _295  and  _296
REMARK  111  A    between atoms: _295  and  _298
REMARK  112  A    between atoms: _298  and  _299
REMARK  113  A    between atoms: _302  and  _304
REMARK  114  A    between atoms: _304  and  _305
REMARK  115  A    between atoms: _307  and  _309
REMARK  116  A    between atoms: _309  and  _310
REMARK  117  A    between atoms: _309  and  _312
REMARK  118  A    between atoms: _312  and  _313
REMARK  119  A    between atoms: _313  and  _314
REMARK  120  A    between atoms: _314  and  _315
REMARK  121  A    between atoms: _325  and  _326
REMARK  122  A    between atoms: _331  and  _333
REMARK  123  A    between atoms: _333  and  _334
REMARK  124  A    between atoms: _333  and  _336
REMARK  125  A    between atoms: _336  and  _337
REMARK  126  A    between atoms: _340  and  _342
REMARK  127  A    between atoms: _342  and  _343
REMARK  128  A    between atoms: _342  and  _345
REMARK  129  A    between atoms: _348  and  _350
REMARK  130  A    between atoms: _350  and  _351
REMARK  131  A    between atoms: _350  and  _353
REMARK  132  A    between atoms: _353  and  _354
REMARK  133  A    between atoms: _357  and  _359
REMARK  134  A    between atoms: _359  and  _360
REMARK  135  A    between atoms: _359  and  _362
REMARK  136  A    between atoms: _362  and  _363
REMARK  137  A    between atoms: _366  and  _368
REMARK  138  A    between atoms: _368  and  _369
REMARK  139  A    between atoms: _371  and  _373
REMARK  140  A    between atoms: _373  and  _374
REMARK  141  A    between atoms: _377  and  _379
REMARK  142  A    between atoms: _379  and  _380
REMARK  143  A    between atoms: _379  and  _382
REMARK  144  A    between atoms: _382  and  _383
REMARK  145  A    between atoms: _383  and  _384
REMARK  146  A    between atoms: _389  and  _391
REMARK  147  A    between atoms: _391  and  _392
REMARK  148  A    between atoms: _391  and  _394
REMARK  149  A    between atoms: _394  and  _395
REMARK  150  A    between atoms: _400  and  _402
REMARK  151  A    between atoms: _402  and  _403
REMARK  152  A    between atoms: _402  and  _405
REMARK  153  A    between atoms: _405  and  _406
REMARK  154  A    between atoms: _408  and  _410
REMARK  155  A    between atoms: _410  and  _411
REMARK  156  A    between atoms: _410  and  _413
REMARK  157  A    between atoms: _416  and  _418
REMARK  158  A    between atoms: _418  and  _419
REMARK  159  A    between atoms: _418  and  _421
REMARK  160  A    between atoms: _421  and  _422
REMARK  161  A    between atoms: _424  and  _426
REMARK  162  A    between atoms: _426  and  _427
REMARK  163  A    between atoms: _430  and  _432
REMARK  164  A    between atoms: _432  and  _433
REMARK  165  A    between atoms: _432  and  _435
REMARK  166  A    between atoms: _435  and  _436
REMARK  167  A    between atoms: _446  and  _448
REMARK  168  A    between atoms: _448  and  _449
REMARK  169  A    between atoms: _448  and  _451
REMARK  170  A    between atoms: _454  and  _456
REMARK  171  A    between atoms: _456  and  _457
REMARK  172  A    between atoms: _456  and  _459
REMARK  173  A    between atoms: _459  and  _460
REMARK  174  A    between atoms: _460  and  _461
REMARK  175  A    between atoms: _466  and  _468
REMARK  176  A    between atoms: _468  and  _469
REMARK  177  A    between atoms: _471  and  _473
REMARK  178  A    between atoms: _473  and  _474
REMARK  179  A    between atoms: _477  and  _479
REMARK  180  A    between atoms: _479  and  _480
REMARK  181  A    between atoms: _479  and  _482
REMARK  182  A    between atoms: _482  and  _483
REMARK  183  A    between atoms: _486  and  _488
REMARK  184  A    between atoms: _488  and  _489
REMARK  185  A    between atoms: _491  and  _493
REMARK  186  A    between atoms: _493  and  _494
REMARK  187  A    between atoms: _496  and  _498
REMARK  188  A    between atoms: _498  and  _499
REMARK  189  A    between atoms: _498  and  _501
REMARK  190  A    between atoms: _501  and  _502
REMARK  191  A    between atoms: _502  and  _503
REMARK  192  A    between atoms: _503  and  _504
REMARK  193  A    between atoms: _504  and  _505
REMARK  194  A    between atoms: _509  and  _511
REMARK  195  A    between atoms: _511  and  _512
REMARK  196  A    between atoms: _511  and  _514
REMARK  197  A    between atoms: _514  and  _515
REMARK  198  A    between atoms: _515  and  _516
REMARK  199  A    between atoms: _516  and  _517
REMARK  200  A    between atoms: _526  and  _528
REMARK  201  A    between atoms: _528  and  _529
REMARK  202  A    between atoms: _528  and  _531
REMARK  203  A    between atoms: _531  and  _532
REMARK  204  A    between atoms: _537  and  _538
REMARK  205  A    between atoms: _540  and  _542
REMARK  206  A    between atoms: _542  and  _543
REMARK  207  A    between atoms: _542  and  _545
REMARK  208  A    between atoms: _545  and  _546
REMARK  209  A    between atoms: _556  and  _558
REMARK  210  A    between atoms: _558  and  _559
REMARK  211  A    between atoms: _558  and  _561
REMARK  212  A    between atoms: _561  and  _562
REMARK  213  A    between atoms: _564  and  _566
REMARK  214  A    between atoms: _566  and  _567
REMARK  215  A    between atoms: _566  and  _569
REMARK  216  A    between atoms: _569  and  _570
REMARK  217  A    between atoms: _573  and  _575
REMARK  218  A    between atoms: _575  and  _576
REMARK  219  A    between atoms: _575  and  _578
REMARK  220  A    between atoms: _581  and  _583
REMARK  221  A    between atoms: _583  and  _584
REMARK  222  A    between atoms: _583  and  _586
REMARK  223  A    between atoms: _586  and  _587
REMARK  224  A    between atoms: _590  and  _592
REMARK  225  A    between atoms: _592  and  _593
REMARK  226  A    between atoms: _592  and  _595
REMARK  227  A    between atoms: _598  and  _599
REMARK  228  A    between atoms: _604  and  _606
REMARK  229  A    between atoms: _606  and  _607
REMARK  230  A    between atoms: _606  and  _609
REMARK  231  A    between atoms: _609  and  _610
REMARK  232  A    between atoms: _615  and  _616
REMARK  233  A    between atoms: _619  and  _620
REMARK  234  A    between atoms: _625  and  _627
REMARK  235  A    between atoms: _627  and  _628
REMARK  236  A    between atoms: _627  and  _630
REMARK  237  A    between atoms: _630  and  _631
REMARK  238  A    between atoms: _634  and  _636
REMARK  239  A    between atoms: _636  and  _637
REMARK  240  A    between atoms: _636  and  _639
REMARK  241  A    between atoms: _639  and  _640
REMARK  242  A    between atoms: _643  and  _645
REMARK  243  A    between atoms: _645  and  _646
REMARK  244  A    between atoms: _648  and  _650
REMARK  245  A    between atoms: _650  and  _651
REMARK  246  A    between atoms: _650  and  _653
REMARK  247  A    between atoms: _653  and  _654
REMARK  248  A    between atoms: _654  and  _655
REMARK  249  A    between atoms: _655  and  _656
REMARK  250  A    between atoms: _665  and  _667
REMARK  251  A    between atoms: _667  and  _668
REMARK  252  A    between atoms: _667  and  _670
REMARK  253  A    between atoms: _670  and  _671
REMARK                            x       y       z     vdW  Elec       q    Type
REMARK                         _______ _______ _______ _____ _____    ______ ____
ROOT
ATOM      1  O   HOH     1      -8.316   0.688   4.380  0.00  0.00    +0.000 OA
ENDROOT
TORSDOF 0
REMARK  Name = ../refined-set-2016/3slz/3slz_pocket.pdb
REMARK  253 active torsions:
REMARK  status: ('A' for Active; 'I' for Inactive)
REMARK    1  A    between atoms: _2  and  _3
REMARK    2  A    between atoms: _9  and  _10
REMARK    3  A    between atoms: _15  and  _17
REMARK    4  A    between atoms: _17  and  _18
REMARK    5  A    between atoms: _17  and  _20
REMARK    6  A    between atoms: _20  and  _21
REMARK    7  A    between atoms: _24  and  _26
REMARK    8  A    between atoms: _26  and  _27
REMARK    9  A    between atoms: _26  and  _29
REMARK   10  A    between atoms: _32  and  _34
REMARK   11  A    between atoms: _34  and  _35
REMARK   12  A    between atoms: _34  and  _37
REMARK   13  A    between atoms: _37  and  _38
REMARK   14  A    between atoms: _41  and  _43
REMARK   15  A    between atoms: _43  and  _44
REMARK   16  A    between atoms: _43  and  _46
REMARK   17  A    between atoms: _46  and  _47
REMARK   18  A    between atoms: _50  and  _52
REMARK   19  A    between atoms: _52  and  _53
REMARK   20  A    between atoms: _55  and  _57
REMARK   21  A    between atoms: _57  and  _58
REMARK   22  A    between atoms: _61  and  _63
REMARK   23  A    between atoms: _63  and  _64
REMARK   24  A    between atoms: _63  and  _66
REMARK   25  A    between atoms: _66  and  _67
REMARK   26  A    between atoms: _67  and  _68
REMARK   27  A    between atoms: _73  and  _75
REMARK   28  A    between atoms: _75  and  _76
REMARK   29  A    between atoms: _75  and  _78
REMARK   30  A    between atoms: _78  and  _79
REMARK   31  A    between atoms: _84  and  _86
REMARK   32  A    between atoms: _86  and  _87
REMARK   33  A    between atoms: _86  and  _89
REMARK   34  A    between atoms: _89  and  _90
REMARK   35  A    between atoms: _92  and  _94
REMARK   36  A    between atoms: _94  and  _95
REMARK   37  A    between atoms: _94  and  _97
REMARK   38  A    between atoms: _100  and  _102
REMARK   39  A    between atoms: _102  and  _103
REMARK   40  A    between atoms: _102  and  _105
REMARK   41  A    between atoms: _105  and  _106
REMARK   42  A    between atoms: _108  and  _110
REMARK   43  A    between atoms: _110  and  _111
REMARK   44  A    between atoms: _114  and  _116
REMARK   45  A    between atoms: _116  and  _117
REMARK   46  A    between atoms: _116  and  _119
REMARK   47  A    between atoms: _119  and  _120
REMARK   48  A    between atoms: _130  and  _132
REMARK   49  A    between atoms: _132  and  _133
REMARK   50  A    between atoms: _132  and  _135
REMARK   51  A    between atoms: _138  and  _140
REMARK   52  A    between atoms: _140  and  _141
REMARK   53  A    between atoms: _140  and  _143
REMARK   54  A    between atoms: _143  and  _144
REMARK   55  A    between atoms: _144  and  _145
REMARK   56  A    between atoms: _150  and  _152
REMARK   57  A    between atoms: _152  and  _153
REMARK   58  A    between atoms: _155  and  _157
REMARK   59  A    between atoms: _157  and  _158
REMARK   60  A    between atoms: _161  and  _163
REMARK   61  A    between atoms: _163  and  _164
REMARK   62  A    between atoms: _163  and  _166
REMARK   63  A    between atoms: _166  and  _167
REMARK   64  A    between atoms: _170  and  _172
REMARK   65  A    between atoms: _172  and  _173
REMARK   66  A    between atoms: _175  and  _177
REMARK   67  A    between atoms: _177  and  _178
REMARK   68  A    between atoms: _180  and  _182
REMARK   69  A    between atoms: _182  and  _183
REMARK   70  A    between atoms: _182  and  _185
REMARK   71  A    between atoms: _185  and  _186
REMARK   72  A    between atoms: _186  and  _187
REMARK   73  A    between atoms: _187  and  _188
REMARK   74  A    between atoms: _188  and  _189
REMARK   75  A    between atoms: _193  and  _195
REMARK   76  A    between atoms: _195  and  _196
REMARK   77  A    between atoms: _195  and  _198
REMARK   78  A    between atoms: _198  and  _199
REMARK   79  A    between atoms: _204  and  _205
REMARK   80  A    between atoms: _207  and  _209
REMARK   81  A    between atoms: _209  and  _210
REMARK   82  A    between atoms: _209  and  _212
REMARK   83  A    between atoms: _212  and  _213
REMARK   84  A    between atoms: _223  and  _225
REMARK   85  A    between atoms: _225  and  _226
REMARK   86  A    between atoms: _225  and  _228
REMARK   87  A    between atoms: _228  and  _229
REMARK   88  A    between atoms: _232  and  _234
REMARK   89  A    between atoms: _234  and  _235
REMARK   90  A    between atoms: _234  and  _237
REMARK   91  A    between atoms: _240  and  _242
REMARK   92  A    between atoms: _242  and  _243
REMARK   93  A    between atoms: _242  and  _245
REMARK   94  A    between atoms: _245  and  _246
REMARK   95  A    between atoms: _249  and  _251
REMARK   96  A    between atoms: _251  and  _252
REMARK   97  A    between atoms: _251  and  _254
REMARK   98  A    between atoms: _257  and  _258
REMARK   99  A    between atoms: _263  and  _265
REMARK  100  A    between atoms: _265  and  _266
REMARK  101  A    between atoms: _265  and  _268
REMARK  102  A    between atoms: _268  and  _269
REMARK  103  A    between atoms: _274  and  _275
REMARK  104  A    between atoms: _278  and  _279
REMARK  105  A    between atoms: _284  and  _286
REMARK  106  A    between atoms: _286  and  _287
REMARK  107  A    between atoms: _286  and  _289
REMARK  108  A    between atoms: _289  and  _290
REMARK  109  A    between atoms: _293  and  _295
REMARK  110  A    between atoms: _295  and  _296
REMARK  111  A    between atoms: _295  and  _298
REMARK  112  A    between atoms: _298  and  _299
REMARK  113  A    between atoms: _302  and  _304
REMARK  114  A    between atoms: _304  and  _305
REMARK  115  A    between atoms: _307  and  _309
REMARK  116  A    between atoms: _309  and  _310
REMARK  117  A    between atoms: _309  and  _312
REMARK  118  A    between atoms: _312  and  _313
REMARK  119  A    between atoms: _313  and  _314
REMARK  120  A    between atoms: _314  and  _315
REMARK  121  A    between atoms: _325  and  _326
REMARK  122  A    between atoms: _331  and  _333
REMARK  123  A    between atoms: _333  and  _334
REMARK  124  A    between atoms: _333  and  _336
REMARK  125  A    between atoms: _336  and  _337
REMARK  126  A    between atoms: _340  and  _342
REMARK  127  A    between atoms: _342  and  _343
REMARK  128  A    between atoms: _342  and  _345
REMARK  129  A    between atoms: _348  and  _350
REMARK  130  A    between atoms: _350  and  _351
REMARK  131  A    between atoms: _350  and  _353
REMARK  132  A    between atoms: _353  and  _354
REMARK  133  A    between atoms: _357  and  _359
REMARK  134  A    between atoms: _359  and  _360
REMARK  135  A    between atoms: _359  and  _362
REMARK  136  A    between atoms: _362  and  _363
REMARK  137  A    between atoms: _366  and  _368
REMARK  138  A    between atoms: _368  and  _369
REMARK  139  A    between atoms: _371  and  _373
REMARK  140  A    between atoms: _373  and  _374
REMARK  141  A    between atoms: _377  and  _379
REMARK  142  A    between atoms: _379  and  _380
REMARK  143  A    between atoms: _379  and  _382
REMARK  144  A    between atoms: _382  and  _383
REMARK  145  A    between atoms: _383  and  _384
REMARK  146  A    between atoms: _389  and  _391
REMARK  147  A    between atoms: _391  and  _392
REMARK  148  A    between atoms: _391  and  _394
REMARK  149  A    between atoms: _394  and  _395
REMARK  150  A    between atoms: _400  and  _402
REMARK  151  A    between atoms: _402  and  _403
REMARK  152  A    between atoms: _402  and  _405
REMARK  153  A    between atoms: _405  and  _406
REMARK  154  A    between atoms: _408  and  _410
REMARK  155  A    between atoms: _410  and  _411
REMARK  156  A    between atoms: _410  and  _413
REMARK  157  A    between atoms: _416  and  _418
REMARK  158  A    between atoms: _418  and  _419
REMARK  159  A    between atoms: _418  and  _421
REMARK  160  A    between atoms: _421  and  _422
REMARK  161  A    between atoms: _424  and  _426
REMARK  162  A    between atoms: _426  and  _427
REMARK  163  A    between atoms: _430  and  _432
REMARK  164  A    between atoms: _432  and  _433
REMARK  165  A    between atoms: _432  and  _435
REMARK  166  A    between atoms: _435  and  _436
REMARK  167  A    between atoms: _446  and  _448
REMARK  168  A    between atoms: _448  and  _449
REMARK  169  A    between atoms: _448  and  _451
REMARK  170  A    between atoms: _454  and  _456
REMARK  171  A    between atoms: _456  and  _457
REMARK  172  A    between atoms: _456  and  _459
REMARK  173  A    between atoms: _459  and  _460
REMARK  174  A    between atoms: _460  and  _461
REMARK  175  A    between atoms: _466  and  _468
REMARK  176  A    between atoms: _468  and  _469
REMARK  177  A    between atoms: _471  and  _473
REMARK  178  A    between atoms: _473  and  _474
REMARK  179  A    between atoms: _477  and  _479
REMARK  180  A    between atoms: _479  and  _480
REMARK  181  A    between atoms: _479  and  _482
REMARK  182  A    between atoms: _482  and  _483
REMARK  183  A    between atoms: _486  and  _488
REMARK  184  A    between atoms: _488  and  _489
REMARK  185  A    between atoms: _491  and  _493
REMARK  186  A    between atoms: _493  and  _494
REMARK  187  A    between atoms: _496  and  _498
REMARK  188  A    between atoms: _498  and  _499
REMARK  189  A    between atoms: _498  and  _501
REMARK  190  A    between atoms: _501  and  _502
REMARK  191  A    between atoms: _502  and  _503
REMARK  192  A    between atoms: _503  and  _504
REMARK  193  A    between atoms: _504  and  _505
REMARK  194  A    between atoms: _509  and  _511
REMARK  195  A    between atoms: _511  and  _512
REMARK  196  A    between atoms: _511  and  _514
REMARK  197  A    between atoms: _514  and  _515
REMARK  198  A    between atoms: _515  and  _516
REMARK  199  A    between atoms: _516  and  _517
REMARK  200  A    between atoms: _526  and  _528
REMARK  201  A    between atoms: _528  and  _529
REMARK  202  A    between atoms: _528  and  _531
REMARK  203  A    between atoms: _531  and  _532
REMARK  204  A    between atoms: _537  and  _538
REMARK  205  A    between atoms: _540  and  _542
REMARK  206  A    between atoms: _542  and  _543
REMARK  207  A    between atoms: _542  and  _545
REMARK  208  A    between atoms: _545  and  _546
REMARK  209  A    between atoms: _556  and  _558
REMARK  210  A    between atoms: _558  and  _559
REMARK  211  A    between atoms: _558  and  _561
REMARK  212  A    between atoms: _561  and  _562
REMARK  213  A    between atoms: _564  and  _566
REMARK  214  A    between atoms: _566  and  _567
REMARK  215  A    between atoms: _566  and  _569
REMARK  216  A    between atoms: _569  and  _570
REMARK  217  A    between atoms: _573  and  _575
REMARK  218  A    between atoms: _575  and  _576
REMARK  219  A    between atoms: _575  and  _578
REMARK  220  A    between atoms: _581  and  _583
REMARK  221  A    between atoms: _583  and  _584
REMARK  222  A    between atoms: _583  and  _586
REMARK  223  A    between atoms: _586  and  _587
REMARK  224  A    between atoms: _590  and  _592
REMARK  225  A    between atoms: _592  and  _593
REMARK  226  A    between atoms: _592  and  _595
REMARK  227  A    between atoms: _598  and  _599
REMARK  228  A    between atoms: _604  and  _606
REMARK  229  A    between atoms: _606  and  _607
REMARK  230  A    between atoms: _606  and  _609
REMARK  231  A    between atoms: _609  and  _610
REMARK  232  A    between atoms: _615  and  _616
REMARK  233  A    between atoms: _619  and  _620
REMARK  234  A    between atoms: _625  and  _627
REMARK  235  A    between atoms: _627  and  _628
REMARK  236  A    between atoms: _627  and  _630
REMARK  237  A    between atoms: _630  and  _631
REMARK  238  A    between atoms: _634  and  _636
REMARK  239  A    between atoms: _636  and  _637
REMARK  240  A    between atoms: _636  and  _639
REMARK  241  A    between atoms: _639  and  _640
REMARK  242  A    between atoms: _643  and  _645
REMARK  243  A    between atoms: _645  and  _646
REMARK  244  A    between atoms: _648  and  _650
REMARK  245  A    between atoms: _650  and  _651
REMARK  246  A    between atoms: _650  and  _653
REMARK  247  A    between atoms: _653  and  _654
REMARK  248  A    between atoms: _654  and  _655
REMARK  249  A    between atoms: _655  and  _656
REMARK  250  A    between atoms: _665  and  _667
REMARK  251  A    between atoms: _667  and  _668
REMARK  252  A    between atoms: _667  and  _670
REMARK  253  A    between atoms: _670  and  _671
REMARK                            x       y       z     vdW  Elec       q    Type
REMARK                         _______ _______ _______ _____ _____    ______ ____
ROOT
ATOM      1  O   HOH     1      -4.120  12.986  -7.218  0.00  0.00    +0.000 OA
ENDROOT
TORSDOF 0
REMARK  Name = ../refined-set-2016/3slz/3slz_pocket.pdb
REMARK  253 active torsions:
REMARK  status: ('A' for Active; 'I' for Inactive)
REMARK    1  A    between atoms: _2  and  _3
REMARK    2  A    between atoms: _9  and  _10
REMARK    3  A    between atoms: _15  and  _17
REMARK    4  A    between atoms: _17  and  _18
REMARK    5  A    between atoms: _17  and  _20
REMARK    6  A    between atoms: _20  and  _21
REMARK    7  A    between atoms: _24  and  _26
REMARK    8  A    between atoms: _26  and  _27
REMARK    9  A    between atoms: _26  and  _29
REMARK   10  A    between atoms: _32  and  _34
REMARK   11  A    between atoms: _34  and  _35
REMARK   12  A    between atoms: _34  and  _37
REMARK   13  A    between atoms: _37  and  _38
REMARK   14  A    between atoms: _41  and  _43
REMARK   15  A    between atoms: _43  and  _44
REMARK   16  A    between atoms: _43  and  _46
REMARK   17  A    between atoms: _46  and  _47
REMARK   18  A    between atoms: _50  and  _52
REMARK   19  A    between atoms: _52  and  _53
REMARK   20  A    between atoms: _55  and  _57
REMARK   21  A    between atoms: _57  and  _58
REMARK   22  A    between atoms: _61  and  _63
REMARK   23  A    between atoms: _63  and  _64
REMARK   24  A    between atoms: _63  and  _66
REMARK   25  A    between atoms: _66  and  _67
REMARK   26  A    between atoms: _67  and  _68
REMARK   27  A    between atoms: _73  and  _75
REMARK   28  A    between atoms: _75  and  _76
REMARK   29  A    between atoms: _75  and  _78
REMARK   30  A    between atoms: _78  and  _79
REMARK   31  A    between atoms: _84  and  _86
REMARK   32  A    between atoms: _86  and  _87
REMARK   33  A    between atoms: _86  and  _89
REMARK   34  A    between atoms: _89  and  _90
REMARK   35  A    between atoms: _92  and  _94
REMARK   36  A    between atoms: _94  and  _95
REMARK   37  A    between atoms: _94  and  _97
REMARK   38  A    between atoms: _100  and  _102
REMARK   39  A    between atoms: _102  and  _103
REMARK   40  A    between atoms: _102  and  _105
REMARK   41  A    between atoms: _105  and  _106
REMARK   42  A    between atoms: _108  and  _110
REMARK   43  A    between atoms: _110  and  _111
REMARK   44  A    between atoms: _114  and  _116
REMARK   45  A    between atoms: _116  and  _117
REMARK   46  A    between atoms: _116  and  _119
REMARK   47  A    between atoms: _119  and  _120
REMARK   48  A    between atoms: _130  and  _132
REMARK   49  A    between atoms: _132  and  _133
REMARK   50  A    between atoms: _132  and  _135
REMARK   51  A    between atoms: _138  and  _140
REMARK   52  A    between atoms: _140  and  _141
REMARK   53  A    between atoms: _140  and  _143
REMARK   54  A    between atoms: _143  and  _144
REMARK   55  A    between atoms: _144  and  _145
REMARK   56  A    between atoms: _150  and  _152
REMARK   57  A    between atoms: _152  and  _153
REMARK   58  A    between atoms: _155  and  _157
REMARK   59  A    between atoms: _157  and  _158
REMARK   60  A    between atoms: _161  and  _163
REMARK   61  A    between atoms: _163  and  _164
REMARK   62  A    between atoms: _163  and  _166
REMARK   63  A    between atoms: _166  and  _167
REMARK   64  A    between atoms: _170  and  _172
REMARK   65  A    between atoms: _172  and  _173
REMARK   66  A    between atoms: _175  and  _177
REMARK   67  A    between atoms: _177  and  _178
REMARK   68  A    between atoms: _180  and  _182
REMARK   69  A    between atoms: _182  and  _183
REMARK   70  A    between atoms: _182  and  _185
REMARK   71  A    between atoms: _185  and  _186
REMARK   72  A    between atoms: _186  and  _187
REMARK   73  A    between atoms: _187  and  _188
REMARK   74  A    between atoms: _188  and  _189
REMARK   75  A    between atoms: _193  and  _195
REMARK   76  A    between atoms: _195  and  _196
REMARK   77  A    between atoms: _195  and  _198
REMARK   78  A    between atoms: _198  and  _199
REMARK   79  A    between atoms: _204  and  _205
REMARK   80  A    between atoms: _207  and  _209
REMARK   81  A    between atoms: _209  and  _210
REMARK   82  A    between atoms: _209  and  _212
REMARK   83  A    between atoms: _212  and  _213
REMARK   84  A    between atoms: _223  and  _225
REMARK   85  A    between atoms: _225  and  _226
REMARK   86  A    between atoms: _225  and  _228
REMARK   87  A    between atoms: _228  and  _229
REMARK   88  A    between atoms: _232  and  _234
REMARK   89  A    between atoms: _234  and  _235
REMARK   90  A    between atoms: _234  and  _237
REMARK   91  A    between atoms: _240  and  _242
REMARK   92  A    between atoms: _242  and  _243
REMARK   93  A    between atoms: _242  and  _245
REMARK   94  A    between atoms: _245  and  _246
REMARK   95  A    between atoms: _249  and  _251
REMARK   96  A    between atoms: _251  and  _252
REMARK   97  A    between atoms: _251  and  _254
REMARK   98  A    between atoms: _257  and  _258
REMARK   99  A    between atoms: _263  and  _265
REMARK  100  A    between atoms: _265  and  _266
REMARK  101  A    between atoms: _265  and  _268
REMARK  102  A    between atoms: _268  and  _269
REMARK  103  A    between atoms: _274  and  _275
REMARK  104  A    between atoms: _278  and  _279
REMARK  105  A    between atoms: _284  and  _286
REMARK  106  A    between atoms: _286  and  _287
REMARK  107  A    between atoms: _286  and  _289
REMARK  108  A    between atoms: _289  and  _290
REMARK  109  A    between atoms: _293  and  _295
REMARK  110  A    between atoms: _295  and  _296
REMARK  111  A    between atoms: _295  and  _298
REMARK  112  A    between atoms: _298  and  _299
REMARK  113  A    between atoms: _302  and  _304
REMARK  114  A    between atoms: _304  and  _305
REMARK  115  A    between atoms: _307  and  _309
REMARK  116  A    between atoms: _309  and  _310
REMARK  117  A    between atoms: _309  and  _312
REMARK  118  A    between atoms: _312  and  _313
REMARK  119  A    between atoms: _313  and  _314
REMARK  120  A    between atoms: _314  and  _315
REMARK  121  A    between atoms: _325  and  _326
REMARK  122  A    between atoms: _331  and  _333
REMARK  123  A    between atoms: _333  and  _334
REMARK  124  A    between atoms: _333  and  _336
REMARK  125  A    between atoms: _336  and  _337
REMARK  126  A    between atoms: _340  and  _342
REMARK  127  A    between atoms: _342  and  _343
REMARK  128  A    between atoms: _342  and  _345
REMARK  129  A    between atoms: _348  and  _350
REMARK  130  A    between atoms: _350  and  _351
REMARK  131  A    between atoms: _350  and  _353
REMARK  132  A    between atoms: _353  and  _354
REMARK  133  A    between atoms: _357  and  _359
REMARK  134  A    between atoms: _359  and  _360
REMARK  135  A    between atoms: _359  and  _362
REMARK  136  A    between atoms: _362  and  _363
REMARK  137  A    between atoms: _366  and  _368
REMARK  138  A    between atoms: _368  and  _369
REMARK  139  A    between atoms: _371  and  _373
REMARK  140  A    between atoms: _373  and  _374
REMARK  141  A    between atoms: _377  and  _379
REMARK  142  A    between atoms: _379  and  _380
REMARK  143  A    between atoms: _379  and  _382
REMARK  144  A    between atoms: _382  and  _383
REMARK  145  A    between atoms: _383  and  _384
REMARK  146  A    between atoms: _389  and  _391
REMARK  147  A    between atoms: _391  and  _392
REMARK  148  A    between atoms: _391  and  _394
REMARK  149  A    between atoms: _394  and  _395
REMARK  150  A    between atoms: _400  and  _402
REMARK  151  A    between atoms: _402  and  _403
REMARK  152  A    between atoms: _402  and  _405
REMARK  153  A    between atoms: _405  and  _406
REMARK  154  A    between atoms: _408  and  _410
REMARK  155  A    between atoms: _410  and  _411
REMARK  156  A    between atoms: _410  and  _413
REMARK  157  A    between atoms: _416  and  _418
REMARK  158  A    between atoms: _418  and  _419
REMARK  159  A    between atoms: _418  and  _421
REMARK  160  A    between atoms: _421  and  _422
REMARK  161  A    between atoms: _424  and  _426
REMARK  162  A    between atoms: _426  and  _427
REMARK  163  A    between atoms: _430  and  _432
REMARK  164  A    between atoms: _432  and  _433
REMARK  165  A    between atoms: _432  and  _435
REMARK  166  A    between atoms: _435  and  _436
REMARK  167  A    between atoms: _446  and  _448
REMARK  168  A    between atoms: _448  and  _449
REMARK  169  A    between atoms: _448  and  _451
REMARK  170  A    between atoms: _454  and  _456
REMARK  171  A    between atoms: _456  and  _457
REMARK  172  A    between atoms: _456  and  _459
REMARK  173  A    between atoms: _459  and  _460
REMARK  174  A    between atoms: _460  and  _461
REMARK  175  A    between atoms: _466  and  _468
REMARK  176  A    between atoms: _468  and  _469
REMARK  177  A    between atoms: _471  and  _473
REMARK  178  A    between atoms: _473  and  _474
REMARK  179  A    between atoms: _477  and  _479
REMARK  180  A    between atoms: _479  and  _480
REMARK  181  A    between atoms: _479  and  _482
REMARK  182  A    between atoms: _482  and  _483
REMARK  183  A    between atoms: _486  and  _488
REMARK  184  A    between atoms: _488  and  _489
REMARK  185  A    between atoms: _491  and  _493
REMARK  186  A    between atoms: _493  and  _494
REMARK  187  A    between atoms: _496  and  _498
REMARK  188  A    between atoms: _498  and  _499
REMARK  189  A    between atoms: _498  and  _501
REMARK  190  A    between atoms: _501  and  _502
REMARK  191  A    between atoms: _502  and  _503
REMARK  192  A    between atoms: _503  and  _504
REMARK  193  A    between atoms: _504  and  _505
REMARK  194  A    between atoms: _509  and  _511
REMARK  195  A    between atoms: _511  and  _512
REMARK  196  A    between atoms: _511  and  _514
REMARK  197  A    between atoms: _514  and  _515
REMARK  198  A    between atoms: _515  and  _516
REMARK  199  A    between atoms: _516  and  _517
REMARK  200  A    between atoms: _526  and  _528
REMARK  201  A    between atoms: _528  and  _529
REMARK  202  A    between atoms: _528  and  _531
REMARK  203  A    between atoms: _531  and  _532
REMARK  204  A    between atoms: _537  and  _538
REMARK  205  A    between atoms: _540  and  _542
REMARK  206  A    between atoms: _542  and  _543
REMARK  207  A    between atoms: _542  and  _545
REMARK  208  A    between atoms: _545  and  _546
REMARK  209  A    between atoms: _556  and  _558
REMARK  210  A    between atoms: _558  and  _559
REMARK  211  A    between atoms: _558  and  _561
REMARK  212  A    between atoms: _561  and  _562
REMARK  213  A    between atoms: _564  and  _566
REMARK  214  A    between atoms: _566  and  _567
REMARK  215  A    between atoms: _566  and  _569
REMARK  216  A    between atoms: _569  and  _570
REMARK  217  A    between atoms: _573  and  _575
REMARK  218  A    between atoms: _575  and  _576
REMARK  219  A    between atoms: _575  and  _578
REMARK  220  A    between atoms: _581  and  _583
REMARK  221  A    between atoms: _583  and  _584
REMARK  222  A    between atoms: _583  and  _586
REMARK  223  A    between atoms: _586  and  _587
REMARK  224  A    between atoms: _590  and  _592
REMARK  225  A    between atoms: _592  and  _593
REMARK  226  A    between atoms: _592  and  _595
REMARK  227  A    between atoms: _598  and  _599
REMARK  228  A    between atoms: _604  and  _606
REMARK  229  A    between atoms: _606  and  _607
REMARK  230  A    between atoms: _606  and  _609
REMARK  231  A    between atoms: _609  and  _610
REMARK  232  A    between atoms: _615  and  _616
REMARK  233  A    between atoms: _619  and  _620
REMARK  234  A    between atoms: _625  and  _627
REMARK  235  A    between atoms: _627  and  _628
REMARK  236  A    between atoms: _627  and  _630
REMARK  237  A    between atoms: _630  and  _631
REMARK  238  A    between atoms: _634  and  _636
REMARK  239  A    between atoms: _636  and  _637
REMARK  240  A    between atoms: _636  and  _639
REMARK  241  A    between atoms: _639  and  _640
REMARK  242  A    between atoms: _643  and  _645
REMARK  243  A    between atoms: _645  and  _646
REMARK  244  A    between atoms: _648  and  _650
REMARK  245  A    between atoms: _650  and  _651
REMARK  246  A    between atoms: _650  and  _653
REMARK  247  A    between atoms: _653  and  _654
REMARK  248  A    between atoms: _654  and  _655
REMARK  249  A    between atoms: _655  and  _656
REMARK  250  A    between atoms: _665  and  _667
REMARK  251  A    between atoms: _667  and  _668
REMARK  252  A    between atoms: _667  and  _670
REMARK  253  A    between atoms: _670  and  _671
REMARK                            x       y       z     vdW  Elec       q    Type
REMARK                         _______ _______ _______ _____ _____    ______ ____
ROOT
ATOM      1  O   HOH     1     -12.373   7.234  12.350  0.00  0.00    +0.000 OA
ENDROOT
TORSDOF 0
REMARK  Name = ../refined-set-2016/3slz/3slz_pocket.pdb
REMARK  253 active torsions:
REMARK  status: ('A' for Active; 'I' for Inactive)
REMARK    1  A    between atoms: _2  and  _3
REMARK    2  A    between atoms: _9  and  _10
REMARK    3  A    between atoms: _15  and  _17
REMARK    4  A    between atoms: _17  and  _18
REMARK    5  A    between atoms: _17  and  _20
REMARK    6  A    between atoms: _20  and  _21
REMARK    7  A    between atoms: _24  and  _26
REMARK    8  A    between atoms: _26  and  _27
REMARK    9  A    between atoms: _26  and  _29
REMARK   10  A    between atoms: _32  and  _34
REMARK   11  A    between atoms: _34  and  _35
REMARK   12  A    between atoms: _34  and  _37
REMARK   13  A    between atoms: _37  and  _38
REMARK   14  A    between atoms: _41  and  _43
REMARK   15  A    between atoms: _43  and  _44
REMARK   16  A    between atoms: _43  and  _46
REMARK   17  A    between atoms: _46  and  _47
REMARK   18  A    between atoms: _50  and  _52
REMARK   19  A    between atoms: _52  and  _53
REMARK   20  A    between atoms: _55  and  _57
REMARK   21  A    between atoms: _57  and  _58
REMARK   22  A    between atoms: _61  and  _63
REMARK   23  A    between atoms: _63  and  _64
REMARK   24  A    between atoms: _63  and  _66
REMARK   25  A    between atoms: _66  and  _67
REMARK   26  A    between atoms: _67  and  _68
REMARK   27  A    between atoms: _73  and  _75
REMARK   28  A    between atoms: _75  and  _76
REMARK   29  A    between atoms: _75  and  _78
REMARK   30  A    between atoms: _78  and  _79
REMARK   31  A    between atoms: _84  and  _86
REMARK   32  A    between atoms: _86  and  _87
REMARK   33  A    between atoms: _86  and  _89
REMARK   34  A    between atoms: _89  and  _90
REMARK   35  A    between atoms: _92  and  _94
REMARK   36  A    between atoms: _94  and  _95
REMARK   37  A    between atoms: _94  and  _97
REMARK   38  A    between atoms: _100  and  _102
REMARK   39  A    between atoms: _102  and  _103
REMARK   40  A    between atoms: _102  and  _105
REMARK   41  A    between atoms: _105  and  _106
REMARK   42  A    between atoms: _108  and  _110
REMARK   43  A    between atoms: _110  and  _111
REMARK   44  A    between atoms: _114  and  _116
REMARK   45  A    between atoms: _116  and  _117
REMARK   46  A    between atoms: _116  and  _119
REMARK   47  A    between atoms: _119  and  _120
REMARK   48  A    between atoms: _130  and  _132
REMARK   49  A    between atoms: _132  and  _133
REMARK   50  A    between atoms: _132  and  _135
REMARK   51  A    between atoms: _138  and  _140
REMARK   52  A    between atoms: _140  and  _141
REMARK   53  A    between atoms: _140  and  _143
REMARK   54  A    between atoms: _143  and  _144
REMARK   55  A    between atoms: _144  and  _145
REMARK   56  A    between atoms: _150  and  _152
REMARK   57  A    between atoms: _152  and  _153
REMARK   58  A    between atoms: _155  and  _157
REMARK   59  A    between atoms: _157  and  _158
REMARK   60  A    between atoms: _161  and  _163
REMARK   61  A    between atoms: _163  and  _164
REMARK   62  A    between atoms: _163  and  _166
REMARK   63  A    between atoms: _166  and  _167
REMARK   64  A    between atoms: _170  and  _172
REMARK   65  A    between atoms: _172  and  _173
REMARK   66  A    between atoms: _175  and  _177
REMARK   67  A    between atoms: _177  and  _178
REMARK   68  A    between atoms: _180  and  _182
REMARK   69  A    between atoms: _182  and  _183
REMARK   70  A    between atoms: _182  and  _185
REMARK   71  A    between atoms: _185  and  _186
REMARK   72  A    between atoms: _186  and  _187
REMARK   73  A    between atoms: _187  and  _188
REMARK   74  A    between atoms: _188  and  _189
REMARK   75  A    between atoms: _193  and  _195
REMARK   76  A    between atoms: _195  and  _196
REMARK   77  A    between atoms: _195  and  _198
REMARK   78  A    between atoms: _198  and  _199
REMARK   79  A    between atoms: _204  and  _205
REMARK   80  A    between atoms: _207  and  _209
REMARK   81  A    between atoms: _209  and  _210
REMARK   82  A    between atoms: _209  and  _212
REMARK   83  A    between atoms: _212  and  _213
REMARK   84  A    between atoms: _223  and  _225
REMARK   85  A    between atoms: _225  and  _226
REMARK   86  A    between atoms: _225  and  _228
REMARK   87  A    between atoms: _228  and  _229
REMARK   88  A    between atoms: _232  and  _234
REMARK   89  A    between atoms: _234  and  _235
REMARK   90  A    between atoms: _234  and  _237
REMARK   91  A    between atoms: _240  and  _242
REMARK   92  A    between atoms: _242  and  _243
REMARK   93  A    between atoms: _242  and  _245
REMARK   94  A    between atoms: _245  and  _246
REMARK   95  A    between atoms: _249  and  _251
REMARK   96  A    between atoms: _251  and  _252
REMARK   97  A    between atoms: _251  and  _254
REMARK   98  A    between atoms: _257  and  _258
REMARK   99  A    between atoms: _263  and  _265
REMARK  100  A    between atoms: _265  and  _266
REMARK  101  A    between atoms: _265  and  _268
REMARK  102  A    between atoms: _268  and  _269
REMARK  103  A    between atoms: _274  and  _275
REMARK  104  A    between atoms: _278  and  _279
REMARK  105  A    between atoms: _284  and  _286
REMARK  106  A    between atoms: _286  and  _287
REMARK  107  A    between atoms: _286  and  _289
REMARK  108  A    between atoms: _289  and  _290
REMARK  109  A    between atoms: _293  and  _295
REMARK  110  A    between atoms: _295  and  _296
REMARK  111  A    between atoms: _295  and  _298
REMARK  112  A    between atoms: _298  and  _299
REMARK  113  A    between atoms: _302  and  _304
REMARK  114  A    between atoms: _304  and  _305
REMARK  115  A    between atoms: _307  and  _309
REMARK  116  A    between atoms: _309  and  _310
REMARK  117  A    between atoms: _309  and  _312
REMARK  118  A    between atoms: _312  and  _313
REMARK  119  A    between atoms: _313  and  _314
REMARK  120  A    between atoms: _314  and  _315
REMARK  121  A    between atoms: _325  and  _326
REMARK  122  A    between atoms: _331  and  _333
REMARK  123  A    between atoms: _333  and  _334
REMARK  124  A    between atoms: _333  and  _336
REMARK  125  A    between atoms: _336  and  _337
REMARK  126  A    between atoms: _340  and  _342
REMARK  127  A    between atoms: _342  and  _343
REMARK  128  A    between atoms: _342  and  _345
REMARK  129  A    between atoms: _348  and  _350
REMARK  130  A    between atoms: _350  and  _351
REMARK  131  A    between atoms: _350  and  _353
REMARK  132  A    between atoms: _353  and  _354
REMARK  133  A    between atoms: _357  and  _359
REMARK  134  A    between atoms: _359  and  _360
REMARK  135  A    between atoms: _359  and  _362
REMARK  136  A    between atoms: _362  and  _363
REMARK  137  A    between atoms: _366  and  _368
REMARK  138  A    between atoms: _368  and  _369
REMARK  139  A    between atoms: _371  and  _373
REMARK  140  A    between atoms: _373  and  _374
REMARK  141  A    between atoms: _377  and  _379
REMARK  142  A    between atoms: _379  and  _380
REMARK  143  A    between atoms: _379  and  _382
REMARK  144  A    between atoms: _382  and  _383
REMARK  145  A    between atoms: _383  and  _384
REMARK  146  A    between atoms: _389  and  _391
REMARK  147  A    between atoms: _391  and  _392
REMARK  148  A    between atoms: _391  and  _394
REMARK  149  A    between atoms: _394  and  _395
REMARK  150  A    between atoms: _400  and  _402
REMARK  151  A    between atoms: _402  and  _403
REMARK  152  A    between atoms: _402  and  _405
REMARK  153  A    between atoms: _405  and  _406
REMARK  154  A    between atoms: _408  and  _410
REMARK  155  A    between atoms: _410  and  _411
REMARK  156  A    between atoms: _410  and  _413
REMARK  157  A    between atoms: _416  and  _418
REMARK  158  A    between atoms: _418  and  _419
REMARK  159  A    between atoms: _418  and  _421
REMARK  160  A    between atoms: _421  and  _422
REMARK  161  A    between atoms: _424  and  _426
REMARK  162  A    between atoms: _426  and  _427
REMARK  163  A    between atoms: _430  and  _432
REMARK  164  A    between atoms: _432  and  _433
REMARK  165  A    between atoms: _432  and  _435
REMARK  166  A    between atoms: _435  and  _436
REMARK  167  A    between atoms: _446  and  _448
REMARK  168  A    between atoms: _448  and  _449
REMARK  169  A    between atoms: _448  and  _451
REMARK  170  A    between atoms: _454  and  _456
REMARK  171  A    between atoms: _456  and  _457
REMARK  172  A    between atoms: _456  and  _459
REMARK  173  A    between atoms: _459  and  _460
REMARK  174  A    between atoms: _460  and  _461
REMARK  175  A    between atoms: _466  and  _468
REMARK  176  A    between atoms: _468  and  _469
REMARK  177  A    between atoms: _471  and  _473
REMARK  178  A    between atoms: _473  and  _474
REMARK  179  A    between atoms: _477  and  _479
REMARK  180  A    between atoms: _479  and  _480
REMARK  181  A    between atoms: _479  and  _482
REMARK  182  A    between atoms: _482  and  _483
REMARK  183  A    between atoms: _486  and  _488
REMARK  184  A    between atoms: _488  and  _489
REMARK  185  A    between atoms: _491  and  _493
REMARK  186  A    between atoms: _493  and  _494
REMARK  187  A    between atoms: _496  and  _498
REMARK  188  A    between atoms: _498  and  _499
REMARK  189  A    between atoms: _498  and  _501
REMARK  190  A    between atoms: _501  and  _502
REMARK  191  A    between atoms: _502  and  _503
REMARK  192  A    between atoms: _503  and  _504
REMARK  193  A    between atoms: _504  and  _505
REMARK  194  A    between atoms: _509  and  _511
REMARK  195  A    between atoms: _511  and  _512
REMARK  196  A    between atoms: _511  and  _514
REMARK  197  A    between atoms: _514  and  _515
REMARK  198  A    between atoms: _515  and  _516
REMARK  199  A    between atoms: _516  and  _517
REMARK  200  A    between atoms: _526  and  _528
REMARK  201  A    between atoms: _528  and  _529
REMARK  202  A    between atoms: _528  and  _531
REMARK  203  A    between atoms: _531  and  _532
REMARK  204  A    between atoms: _537  and  _538
REMARK  205  A    between atoms: _540  and  _542
REMARK  206  A    between atoms: _542  and  _543
REMARK  207  A    between atoms: _542  and  _545
REMARK  208  A    between atoms: _545  and  _546
REMARK  209  A    between atoms: _556  and  _558
REMARK  210  A    between atoms: _558  and  _559
REMARK  211  A    between atoms: _558  and  _561
REMARK  212  A    between atoms: _561  and  _562
REMARK  213  A    between atoms: _564  and  _566
REMARK  214  A    between atoms: _566  and  _567
REMARK  215  A    between atoms: _566  and  _569
REMARK  216  A    between atoms: _569  and  _570
REMARK  217  A    between atoms: _573  and  _575
REMARK  218  A    between atoms: _575  and  _576
REMARK  219  A    between atoms: _575  and  _578
REMARK  220  A    between atoms: _581  and  _583
REMARK  221  A    between atoms: _583  and  _584
REMARK  222  A    between atoms: _583  and  _586
REMARK  223  A    between atoms: _586  and  _587
REMARK  224  A    between atoms: _590  and  _592
REMARK  225  A    between atoms: _592  and  _593
REMARK  226  A    between atoms: _592  and  _595
REMARK  227  A    between atoms: _598  and  _599
REMARK  228  A    between atoms: _604  and  _606
REMARK  229  A    between atoms: _606  and  _607
REMARK  230  A    between atoms: _606  and  _609
REMARK  231  A    between atoms: _609  and  _610
REMARK  232  A    between atoms: _615  and  _616
REMARK  233  A    between atoms: _619  and  _620
REMARK  234  A    between atoms: _625  and  _627
REMARK  235  A    between atoms: _627  and  _628
REMARK  236  A    between atoms: _627  and  _630
REMARK  237  A    between atoms: _630  and  _631
REMARK  238  A    between atoms: _634  and  _636
REMARK  239  A    between atoms: _636  and  _637
REMARK  240  A    between atoms: _636  and  _639
REMARK  241  A    between atoms: _639  and  _640
REMARK  242  A    between atoms: _643  and  _645
REMARK  243  A    between atoms: _645  and  _646
REMARK  244  A    between atoms: _648  and  _650
REMARK  245  A    between atoms: _650  and  _651
REMARK  246  A    between atoms: _650  and  _653
REMARK  247  A    between atoms: _653  and  _654
REMARK  248  A    between atoms: _654  and  _655
REMARK  249  A    between atoms: _655  and  _656
REMARK  250  A    between atoms: _665  and  _667
REMARK  251  A    between atoms: _667  and  _668
REMARK  252  A    between atoms: _667  and  _670
REMARK  253  A    between atoms: _670  and  _671
REMARK                            x       y       z     vdW  Elec       q    Type
REMARK                         _______ _______ _______ _____ _____    ______ ____
ROOT
ATOM      1  O   HOH     1      -4.120   3.951  -7.196  0.00  0.00    +0.000 OA
ENDROOT
TORSDOF 0
REMARK  Name = ../refined-set-2016/3slz/3slz_pocket.pdb
REMARK  253 active torsions:
REMARK  status: ('A' for Active; 'I' for Inactive)
REMARK    1  A    between atoms: _2  and  _3
REMARK    2  A    between atoms: _9  and  _10
REMARK    3  A    between atoms: _15  and  _17
REMARK    4  A    between atoms: _17  and  _18
REMARK    5  A    between atoms: _17  and  _20
REMARK    6  A    between atoms: _20  and  _21
REMARK    7  A    between atoms: _24  and  _26
REMARK    8  A    between atoms: _26  and  _27
REMARK    9  A    between atoms: _26  and  _29
REMARK   10  A    between atoms: _32  and  _34
REMARK   11  A    between atoms: _34  and  _35
REMARK   12  A    between atoms: _34  and  _37
REMARK   13  A    between atoms: _37  and  _38
REMARK   14  A    between atoms: _41  and  _43
REMARK   15  A    between atoms: _43  and  _44
REMARK   16  A    between atoms: _43  and  _46
REMARK   17  A    between atoms: _46  and  _47
REMARK   18  A    between atoms: _50  and  _52
REMARK   19  A    between atoms: _52  and  _53
REMARK   20  A    between atoms: _55  and  _57
REMARK   21  A    between atoms: _57  and  _58
REMARK   22  A    between atoms: _61  and  _63
REMARK   23  A    between atoms: _63  and  _64
REMARK   24  A    between atoms: _63  and  _66
REMARK   25  A    between atoms: _66  and  _67
REMARK   26  A    between atoms: _67  and  _68
REMARK   27  A    between atoms: _73  and  _75
REMARK   28  A    between atoms: _75  and  _76
REMARK   29  A    between atoms: _75  and  _78
REMARK   30  A    between atoms: _78  and  _79
REMARK   31  A    between atoms: _84  and  _86
REMARK   32  A    between atoms: _86  and  _87
REMARK   33  A    between atoms: _86  and  _89
REMARK   34  A    between atoms: _89  and  _90
REMARK   35  A    between atoms: _92  and  _94
REMARK   36  A    between atoms: _94  and  _95
REMARK   37  A    between atoms: _94  and  _97
REMARK   38  A    between atoms: _100  and  _102
REMARK   39  A    between atoms: _102  and  _103
REMARK   40  A    between atoms: _102  and  _105
REMARK   41  A    between atoms: _105  and  _106
REMARK   42  A    between atoms: _108  and  _110
REMARK   43  A    between atoms: _110  and  _111
REMARK   44  A    between atoms: _114  and  _116
REMARK   45  A    between atoms: _116  and  _117
REMARK   46  A    between atoms: _116  and  _119
REMARK   47  A    between atoms: _119  and  _120
REMARK   48  A    between atoms: _130  and  _132
REMARK   49  A    between atoms: _132  and  _133
REMARK   50  A    between atoms: _132  and  _135
REMARK   51  A    between atoms: _138  and  _140
REMARK   52  A    between atoms: _140  and  _141
REMARK   53  A    between atoms: _140  and  _143
REMARK   54  A    between atoms: _143  and  _144
REMARK   55  A    between atoms: _144  and  _145
REMARK   56  A    between atoms: _150  and  _152
REMARK   57  A    between atoms: _152  and  _153
REMARK   58  A    between atoms: _155  and  _157
REMARK   59  A    between atoms: _157  and  _158
REMARK   60  A    between atoms: _161  and  _163
REMARK   61  A    between atoms: _163  and  _164
REMARK   62  A    between atoms: _163  and  _166
REMARK   63  A    between atoms: _166  and  _167
REMARK   64  A    between atoms: _170  and  _172
REMARK   65  A    between atoms: _172  and  _173
REMARK   66  A    between atoms: _175  and  _177
REMARK   67  A    between atoms: _177  and  _178
REMARK   68  A    between atoms: _180  and  _182
REMARK   69  A    between atoms: _182  and  _183
REMARK   70  A    between atoms: _182  and  _185
REMARK   71  A    between atoms: _185  and  _186
REMARK   72  A    between atoms: _186  and  _187
REMARK   73  A    between atoms: _187  and  _188
REMARK   74  A    between atoms: _188  and  _189
REMARK   75  A    between atoms: _193  and  _195
REMARK   76  A    between atoms: _195  and  _196
REMARK   77  A    between atoms: _195  and  _198
REMARK   78  A    between atoms: _198  and  _199
REMARK   79  A    between atoms: _204  and  _205
REMARK   80  A    between atoms: _207  and  _209
REMARK   81  A    between atoms: _209  and  _210
REMARK   82  A    between atoms: _209  and  _212
REMARK   83  A    between atoms: _212  and  _213
REMARK   84  A    between atoms: _223  and  _225
REMARK   85  A    between atoms: _225  and  _226
REMARK   86  A    between atoms: _225  and  _228
REMARK   87  A    between atoms: _228  and  _229
REMARK   88  A    between atoms: _232  and  _234
REMARK   89  A    between atoms: _234  and  _235
REMARK   90  A    between atoms: _234  and  _237
REMARK   91  A    between atoms: _240  and  _242
REMARK   92  A    between atoms: _242  and  _243
REMARK   93  A    between atoms: _242  and  _245
REMARK   94  A    between atoms: _245  and  _246
REMARK   95  A    between atoms: _249  and  _251
REMARK   96  A    between atoms: _251  and  _252
REMARK   97  A    between atoms: _251  and  _254
REMARK   98  A    between atoms: _257  and  _258
REMARK   99  A    between atoms: _263  and  _265
REMARK  100  A    between atoms: _265  and  _266
REMARK  101  A    between atoms: _265  and  _268
REMARK  102  A    between atoms: _268  and  _269
REMARK  103  A    between atoms: _274  and  _275
REMARK  104  A    between atoms: _278  and  _279
REMARK  105  A    between atoms: _284  and  _286
REMARK  106  A    between atoms: _286  and  _287
REMARK  107  A    between atoms: _286  and  _289
REMARK  108  A    between atoms: _289  and  _290
REMARK  109  A    between atoms: _293  and  _295
REMARK  110  A    between atoms: _295  and  _296
REMARK  111  A    between atoms: _295  and  _298
REMARK  112  A    between atoms: _298  and  _299
REMARK  113  A    between atoms: _302  and  _304
REMARK  114  A    between atoms: _304  and  _305
REMARK  115  A    between atoms: _307  and  _309
REMARK  116  A    between atoms: _309  and  _310
REMARK  117  A    between atoms: _309  and  _312
REMARK  118  A    between atoms: _312  and  _313
REMARK  119  A    between atoms: _313  and  _314
REMARK  120  A    between atoms: _314  and  _315
REMARK  121  A    between atoms: _325  and  _326
REMARK  122  A    between atoms: _331  and  _333
REMARK  123  A    between atoms: _333  and  _334
REMARK  124  A    between atoms: _333  and  _336
REMARK  125  A    between atoms: _336  and  _337
REMARK  126  A    between atoms: _340  and  _342
REMARK  127  A    between atoms: _342  and  _343
REMARK  128  A    between atoms: _342  and  _345
REMARK  129  A    between atoms: _348  and  _350
REMARK  130  A    between atoms: _350  and  _351
REMARK  131  A    between atoms: _350  and  _353
REMARK  132  A    between atoms: _353  and  _354
REMARK  133  A    between atoms: _357  and  _359
REMARK  134  A    between atoms: _359  and  _360
REMARK  135  A    between atoms: _359  and  _362
REMARK  136  A    between atoms: _362  and  _363
REMARK  137  A    between atoms: _366  and  _368
REMARK  138  A    between atoms: _368  and  _369
REMARK  139  A    between atoms: _371  and  _373
REMARK  140  A    between atoms: _373  and  _374
REMARK  141  A    between atoms: _377  and  _379
REMARK  142  A    between atoms: _379  and  _380
REMARK  143  A    between atoms: _379  and  _382
REMARK  144  A    between atoms: _382  and  _383
REMARK  145  A    between atoms: _383  and  _384
REMARK  146  A    between atoms: _389  and  _391
REMARK  147  A    between atoms: _391  and  _392
REMARK  148  A    between atoms: _391  and  _394
REMARK  149  A    between atoms: _394  and  _395
REMARK  150  A    between atoms: _400  and  _402
REMARK  151  A    between atoms: _402  and  _403
REMARK  152  A    between atoms: _402  and  _405
REMARK  153  A    between atoms: _405  and  _406
REMARK  154  A    between atoms: _408  and  _410
REMARK  155  A    between atoms: _410  and  _411
REMARK  156  A    between atoms: _410  and  _413
REMARK  157  A    between atoms: _416  and  _418
REMARK  158  A    between atoms: _418  and  _419
REMARK  159  A    between atoms: _418  and  _421
REMARK  160  A    between atoms: _421  and  _422
REMARK  161  A    between atoms: _424  and  _426
REMARK  162  A    between atoms: _426  and  _427
REMARK  163  A    between atoms: _430  and  _432
REMARK  164  A    between atoms: _432  and  _433
REMARK  165  A    between atoms: _432  and  _435
REMARK  166  A    between atoms: _435  and  _436
REMARK  167  A    between atoms: _446  and  _448
REMARK  168  A    between atoms: _448  and  _449
REMARK  169  A    between atoms: _448  and  _451
REMARK  170  A    between atoms: _454  and  _456
REMARK  171  A    between atoms: _456  and  _457
REMARK  172  A    between atoms: _456  and  _459
REMARK  173  A    between atoms: _459  and  _460
REMARK  174  A    between atoms: _460  and  _461
REMARK  175  A    between atoms: _466  and  _468
REMARK  176  A    between atoms: _468  and  _469
REMARK  177  A    between atoms: _471  and  _473
REMARK  178  A    between atoms: _473  and  _474
REMARK  179  A    between atoms: _477  and  _479
REMARK  180  A    between atoms: _479  and  _480
REMARK  181  A    between atoms: _479  and  _482
REMARK  182  A    between atoms: _482  and  _483
REMARK  183  A    between atoms: _486  and  _488
REMARK  184  A    between atoms: _488  and  _489
REMARK  185  A    between atoms: _491  and  _493
REMARK  186  A    between atoms: _493  and  _494
REMARK  187  A    between atoms: _496  and  _498
REMARK  188  A    between atoms: _498  and  _499
REMARK  189  A    between atoms: _498  and  _501
REMARK  190  A    between atoms: _501  and  _502
REMARK  191  A    between atoms: _502  and  _503
REMARK  192  A    between atoms: _503  and  _504
REMARK  193  A    between atoms: _504  and  _505
REMARK  194  A    between atoms: _509  and  _511
REMARK  195  A    between atoms: _511  and  _512
REMARK  196  A    between atoms: _511  and  _514
REMARK  197  A    between atoms: _514  and  _515
REMARK  198  A    between atoms: _515  and  _516
REMARK  199  A    between atoms: _516  and  _517
REMARK  200  A    between atoms: _526  and  _528
REMARK  201  A    between atoms: _528  and  _529
REMARK  202  A    between atoms: _528  and  _531
REMARK  203  A    between atoms: _531  and  _532
REMARK  204  A    between atoms: _537  and  _538
REMARK  205  A    between atoms: _540  and  _542
REMARK  206  A    between atoms: _542  and  _543
REMARK  207  A    between atoms: _542  and  _545
REMARK  208  A    between atoms: _545  and  _546
REMARK  209  A    between atoms: _556  and  _558
REMARK  210  A    between atoms: _558  and  _559
REMARK  211  A    between atoms: _558  and  _561
REMARK  212  A    between atoms: _561  and  _562
REMARK  213  A    between atoms: _564  and  _566
REMARK  214  A    between atoms: _566  and  _567
REMARK  215  A    between atoms: _566  and  _569
REMARK  216  A    between atoms: _569  and  _570
REMARK  217  A    between atoms: _573  and  _575
REMARK  218  A    between atoms: _575  and  _576
REMARK  219  A    between atoms: _575  and  _578
REMARK  220  A    between atoms: _581  and  _583
REMARK  221  A    between atoms: _583  and  _584
REMARK  222  A    between atoms: _583  and  _586
REMARK  223  A    between atoms: _586  and  _587
REMARK  224  A    between atoms: _590  and  _592
REMARK  225  A    between atoms: _592  and  _593
REMARK  226  A    between atoms: _592  and  _595
REMARK  227  A    between atoms: _598  and  _599
REMARK  228  A    between atoms: _604  and  _606
REMARK  229  A    between atoms: _606  and  _607
REMARK  230  A    between atoms: _606  and  _609
REMARK  231  A    between atoms: _609  and  _610
REMARK  232  A    between atoms: _615  and  _616
REMARK  233  A    between atoms: _619  and  _620
REMARK  234  A    between atoms: _625  and  _627
REMARK  235  A    between atoms: _627  and  _628
REMARK  236  A    between atoms: _627  and  _630
REMARK  237  A    between atoms: _630  and  _631
REMARK  238  A    between atoms: _634  and  _636
REMARK  239  A    between atoms: _636  and  _637
REMARK  240  A    between atoms: _636  and  _639
REMARK  241  A    between atoms: _639  and  _640
REMARK  242  A    between atoms: _643  and  _645
REMARK  243  A    between atoms: _645  and  _646
REMARK  244  A    between atoms: _648  and  _650
REMARK  245  A    between atoms: _650  and  _651
REMARK  246  A    between atoms: _650  and  _653
REMARK  247  A    between atoms: _653  and  _654
REMARK  248  A    between atoms: _654  and  _655
REMARK  249  A    between atoms: _655  and  _656
REMARK  250  A    between atoms: _665  and  _667
REMARK  251  A    between atoms: _667  and  _668
REMARK  252  A    between atoms: _667  and  _670
REMARK  253  A    between atoms: _670  and  _671
REMARK                            x       y       z     vdW  Elec       q    Type
REMARK                         _______ _______ _______ _____ _____    ______ ____
ROOT
ATOM      1  O   HOH     1      -9.200  -0.357  -1.372  0.00  0.00    +0.000 OA
ENDROOT
TORSDOF 0
REMARK  Name = ../refined-set-2016/3slz/3slz_pocket.pdb
REMARK  253 active torsions:
REMARK  status: ('A' for Active; 'I' for Inactive)
REMARK    1  A    between atoms: _2  and  _3
REMARK    2  A    between atoms: _9  and  _10
REMARK    3  A    between atoms: _15  and  _17
REMARK    4  A    between atoms: _17  and  _18
REMARK    5  A    between atoms: _17  and  _20
REMARK    6  A    between atoms: _20  and  _21
REMARK    7  A    between atoms: _24  and  _26
REMARK    8  A    between atoms: _26  and  _27
REMARK    9  A    between atoms: _26  and  _29
REMARK   10  A    between atoms: _32  and  _34
REMARK   11  A    between atoms: _34  and  _35
REMARK   12  A    between atoms: _34  and  _37
REMARK   13  A    between atoms: _37  and  _38
REMARK   14  A    between atoms: _41  and  _43
REMARK   15  A    between atoms: _43  and  _44
REMARK   16  A    between atoms: _43  and  _46
REMARK   17  A    between atoms: _46  and  _47
REMARK   18  A    between atoms: _50  and  _52
REMARK   19  A    between atoms: _52  and  _53
REMARK   20  A    between atoms: _55  and  _57
REMARK   21  A    between atoms: _57  and  _58
REMARK   22  A    between atoms: _61  and  _63
REMARK   23  A    between atoms: _63  and  _64
REMARK   24  A    between atoms: _63  and  _66
REMARK   25  A    between atoms: _66  and  _67
REMARK   26  A    between atoms: _67  and  _68
REMARK   27  A    between atoms: _73  and  _75
REMARK   28  A    between atoms: _75  and  _76
REMARK   29  A    between atoms: _75  and  _78
REMARK   30  A    between atoms: _78  and  _79
REMARK   31  A    between atoms: _84  and  _86
REMARK   32  A    between atoms: _86  and  _87
REMARK   33  A    between atoms: _86  and  _89
REMARK   34  A    between atoms: _89  and  _90
REMARK   35  A    between atoms: _92  and  _94
REMARK   36  A    between atoms: _94  and  _95
REMARK   37  A    between atoms: _94  and  _97
REMARK   38  A    between atoms: _100  and  _102
REMARK   39  A    between atoms: _102  and  _103
REMARK   40  A    between atoms: _102  and  _105
REMARK   41  A    between atoms: _105  and  _106
REMARK   42  A    between atoms: _108  and  _110
REMARK   43  A    between atoms: _110  and  _111
REMARK   44  A    between atoms: _114  and  _116
REMARK   45  A    between atoms: _116  and  _117
REMARK   46  A    between atoms: _116  and  _119
REMARK   47  A    between atoms: _119  and  _120
REMARK   48  A    between atoms: _130  and  _132
REMARK   49  A    between atoms: _132  and  _133
REMARK   50  A    between atoms: _132  and  _135
REMARK   51  A    between atoms: _138  and  _140
REMARK   52  A    between atoms: _140  and  _141
REMARK   53  A    between atoms: _140  and  _143
REMARK   54  A    between atoms: _143  and  _144
REMARK   55  A    between atoms: _144  and  _145
REMARK   56  A    between atoms: _150  and  _152
REMARK   57  A    between atoms: _152  and  _153
REMARK   58  A    between atoms: _155  and  _157
REMARK   59  A    between atoms: _157  and  _158
REMARK   60  A    between atoms: _161  and  _163
REMARK   61  A    between atoms: _163  and  _164
REMARK   62  A    between atoms: _163  and  _166
REMARK   63  A    between atoms: _166  and  _167
REMARK   64  A    between atoms: _170  and  _172
REMARK   65  A    between atoms: _172  and  _173
REMARK   66  A    between atoms: _175  and  _177
REMARK   67  A    between atoms: _177  and  _178
REMARK   68  A    between atoms: _180  and  _182
REMARK   69  A    between atoms: _182  and  _183
REMARK   70  A    between atoms: _182  and  _185
REMARK   71  A    between atoms: _185  and  _186
REMARK   72  A    between atoms: _186  and  _187
REMARK   73  A    between atoms: _187  and  _188
REMARK   74  A    between atoms: _188  and  _189
REMARK   75  A    between atoms: _193  and  _195
REMARK   76  A    between atoms: _195  and  _196
REMARK   77  A    between atoms: _195  and  _198
REMARK   78  A    between atoms: _198  and  _199
REMARK   79  A    between atoms: _204  and  _205
REMARK   80  A    between atoms: _207  and  _209
REMARK   81  A    between atoms: _209  and  _210
REMARK   82  A    between atoms: _209  and  _212
REMARK   83  A    between atoms: _212  and  _213
REMARK   84  A    between atoms: _223  and  _225
REMARK   85  A    between atoms: _225  and  _226
REMARK   86  A    between atoms: _225  and  _228
REMARK   87  A    between atoms: _228  and  _229
REMARK   88  A    between atoms: _232  and  _234
REMARK   89  A    between atoms: _234  and  _235
REMARK   90  A    between atoms: _234  and  _237
REMARK   91  A    between atoms: _240  and  _242
REMARK   92  A    between atoms: _242  and  _243
REMARK   93  A    between atoms: _242  and  _245
REMARK   94  A    between atoms: _245  and  _246
REMARK   95  A    between atoms: _249  and  _251
REMARK   96  A    between atoms: _251  and  _252
REMARK   97  A    between atoms: _251  and  _254
REMARK   98  A    between atoms: _257  and  _258
REMARK   99  A    between atoms: _263  and  _265
REMARK  100  A    between atoms: _265  and  _266
REMARK  101  A    between atoms: _265  and  _268
REMARK  102  A    between atoms: _268  and  _269
REMARK  103  A    between atoms: _274  and  _275
REMARK  104  A    between atoms: _278  and  _279
REMARK  105  A    between atoms: _284  and  _286
REMARK  106  A    between atoms: _286  and  _287
REMARK  107  A    between atoms: _286  and  _289
REMARK  108  A    between atoms: _289  and  _290
REMARK  109  A    between atoms: _293  and  _295
REMARK  110  A    between atoms: _295  and  _296
REMARK  111  A    between atoms: _295  and  _298
REMARK  112  A    between atoms: _298  and  _299
REMARK  113  A    between atoms: _302  and  _304
REMARK  114  A    between atoms: _304  and  _305
REMARK  115  A    between atoms: _307  and  _309
REMARK  116  A    between atoms: _309  and  _310
REMARK  117  A    between atoms: _309  and  _312
REMARK  118  A    between atoms: _312  and  _313
REMARK  119  A    between atoms: _313  and  _314
REMARK  120  A    between atoms: _314  and  _315
REMARK  121  A    between atoms: _325  and  _326
REMARK  122  A    between atoms: _331  and  _333
REMARK  123  A    between atoms: _333  and  _334
REMARK  124  A    between atoms: _333  and  _336
REMARK  125  A    between atoms: _336  and  _337
REMARK  126  A    between atoms: _340  and  _342
REMARK  127  A    between atoms: _342  and  _343
REMARK  128  A    between atoms: _342  and  _345
REMARK  129  A    between atoms: _348  and  _350
REMARK  130  A    between atoms: _350  and  _351
REMARK  131  A    between atoms: _350  and  _353
REMARK  132  A    between atoms: _353  and  _354
REMARK  133  A    between atoms: _357  and  _359
REMARK  134  A    between atoms: _359  and  _360
REMARK  135  A    between atoms: _359  and  _362
REMARK  136  A    between atoms: _362  and  _363
REMARK  137  A    between atoms: _366  and  _368
REMARK  138  A    between atoms: _368  and  _369
REMARK  139  A    between atoms: _371  and  _373
REMARK  140  A    between atoms: _373  and  _374
REMARK  141  A    between atoms: _377  and  _379
REMARK  142  A    between atoms: _379  and  _380
REMARK  143  A    between atoms: _379  and  _382
REMARK  144  A    between atoms: _382  and  _383
REMARK  145  A    between atoms: _383  and  _384
REMARK  146  A    between atoms: _389  and  _391
REMARK  147  A    between atoms: _391  and  _392
REMARK  148  A    between atoms: _391  and  _394
REMARK  149  A    between atoms: _394  and  _395
REMARK  150  A    between atoms: _400  and  _402
REMARK  151  A    between atoms: _402  and  _403
REMARK  152  A    between atoms: _402  and  _405
REMARK  153  A    between atoms: _405  and  _406
REMARK  154  A    between atoms: _408  and  _410
REMARK  155  A    between atoms: _410  and  _411
REMARK  156  A    between atoms: _410  and  _413
REMARK  157  A    between atoms: _416  and  _418
REMARK  158  A    between atoms: _418  and  _419
REMARK  159  A    between atoms: _418  and  _421
REMARK  160  A    between atoms: _421  and  _422
REMARK  161  A    between atoms: _424  and  _426
REMARK  162  A    between atoms: _426  and  _427
REMARK  163  A    between atoms: _430  and  _432
REMARK  164  A    between atoms: _432  and  _433
REMARK  165  A    between atoms: _432  and  _435
REMARK  166  A    between atoms: _435  and  _436
REMARK  167  A    between atoms: _446  and  _448
REMARK  168  A    between atoms: _448  and  _449
REMARK  169  A    between atoms: _448  and  _451
REMARK  170  A    between atoms: _454  and  _456
REMARK  171  A    between atoms: _456  and  _457
REMARK  172  A    between atoms: _456  and  _459
REMARK  173  A    between atoms: _459  and  _460
REMARK  174  A    between atoms: _460  and  _461
REMARK  175  A    between atoms: _466  and  _468
REMARK  176  A    between atoms: _468  and  _469
REMARK  177  A    between atoms: _471  and  _473
REMARK  178  A    between atoms: _473  and  _474
REMARK  179  A    between atoms: _477  and  _479
REMARK  180  A    between atoms: _479  and  _480
REMARK  181  A    between atoms: _479  and  _482
REMARK  182  A    between atoms: _482  and  _483
REMARK  183  A    between atoms: _486  and  _488
REMARK  184  A    between atoms: _488  and  _489
REMARK  185  A    between atoms: _491  and  _493
REMARK  186  A    between atoms: _493  and  _494
REMARK  187  A    between atoms: _496  and  _498
REMARK  188  A    between atoms: _498  and  _499
REMARK  189  A    between atoms: _498  and  _501
REMARK  190  A    between atoms: _501  and  _502
REMARK  191  A    between atoms: _502  and  _503
REMARK  192  A    between atoms: _503  and  _504
REMARK  193  A    between atoms: _504  and  _505
REMARK  194  A    between atoms: _509  and  _511
REMARK  195  A    between atoms: _511  and  _512
REMARK  196  A    between atoms: _511  and  _514
REMARK  197  A    between atoms: _514  and  _515
REMARK  198  A    between atoms: _515  and  _516
REMARK  199  A    between atoms: _516  and  _517
REMARK  200  A    between atoms: _526  and  _528
REMARK  201  A    between atoms: _528  and  _529
REMARK  202  A    between atoms: _528  and  _531
REMARK  203  A    between atoms: _531  and  _532
REMARK  204  A    between atoms: _537  and  _538
REMARK  205  A    between atoms: _540  and  _542
REMARK  206  A    between atoms: _542  and  _543
REMARK  207  A    between atoms: _542  and  _545
REMARK  208  A    between atoms: _545  and  _546
REMARK  209  A    between atoms: _556  and  _558
REMARK  210  A    between atoms: _558  and  _559
REMARK  211  A    between atoms: _558  and  _561
REMARK  212  A    between atoms: _561  and  _562
REMARK  213  A    between atoms: _564  and  _566
REMARK  214  A    between atoms: _566  and  _567
REMARK  215  A    between atoms: _566  and  _569
REMARK  216  A    between atoms: _569  and  _570
REMARK  217  A    between atoms: _573  and  _575
REMARK  218  A    between atoms: _575  and  _576
REMARK  219  A    between atoms: _575  and  _578
REMARK  220  A    between atoms: _581  and  _583
REMARK  221  A    between atoms: _583  and  _584
REMARK  222  A    between atoms: _583  and  _586
REMARK  223  A    between atoms: _586  and  _587
REMARK  224  A    between atoms: _590  and  _592
REMARK  225  A    between atoms: _592  and  _593
REMARK  226  A    between atoms: _592  and  _595
REMARK  227  A    between atoms: _598  and  _599
REMARK  228  A    between atoms: _604  and  _606
REMARK  229  A    between atoms: _606  and  _607
REMARK  230  A    between atoms: _606  and  _609
REMARK  231  A    between atoms: _609  and  _610
REMARK  232  A    between atoms: _615  and  _616
REMARK  233  A    between atoms: _619  and  _620
REMARK  234  A    between atoms: _625  and  _627
REMARK  235  A    between atoms: _627  and  _628
REMARK  236  A    between atoms: _627  and  _630
REMARK  237  A    between atoms: _630  and  _631
REMARK  238  A    between atoms: _634  and  _636
REMARK  239  A    between atoms: _636  and  _637
REMARK  240  A    between atoms: _636  and  _639
REMARK  241  A    between atoms: _639  and  _640
REMARK  242  A    between atoms: _643  and  _645
REMARK  243  A    between atoms: _645  and  _646
REMARK  244  A    between atoms: _648  and  _650
REMARK  245  A    between atoms: _650  and  _651
REMARK  246  A    between atoms: _650  and  _653
REMARK  247  A    between atoms: _653  and  _654
REMARK  248  A    between atoms: _654  and  _655
REMARK  249  A    between atoms: _655  and  _656
REMARK  250  A    between atoms: _665  and  _667
REMARK  251  A    between atoms: _667  and  _668
REMARK  252  A    between atoms: _667  and  _670
REMARK  253  A    between atoms: _670  and  _671
REMARK                            x       y       z     vdW  Elec       q    Type
REMARK                         _______ _______ _______ _____ _____    ______ ____
ROOT
ATOM      1  O   HOH     1     -12.839   6.507  -1.166  0.00  0.00    +0.000 OA
ENDROOT
TORSDOF 0
REMARK  Name = ../refined-set-2016/3slz/3slz_pocket.pdb
REMARK  253 active torsions:
REMARK  status: ('A' for Active; 'I' for Inactive)
REMARK    1  A    between atoms: _2  and  _3
REMARK    2  A    between atoms: _9  and  _10
REMARK    3  A    between atoms: _15  and  _17
REMARK    4  A    between atoms: _17  and  _18
REMARK    5  A    between atoms: _17  and  _20
REMARK    6  A    between atoms: _20  and  _21
REMARK    7  A    between atoms: _24  and  _26
REMARK    8  A    between atoms: _26  and  _27
REMARK    9  A    between atoms: _26  and  _29
REMARK   10  A    between atoms: _32  and  _34
REMARK   11  A    between atoms: _34  and  _35
REMARK   12  A    between atoms: _34  and  _37
REMARK   13  A    between atoms: _37  and  _38
REMARK   14  A    between atoms: _41  and  _43
REMARK   15  A    between atoms: _43  and  _44
REMARK   16  A    between atoms: _43  and  _46
REMARK   17  A    between atoms: _46  and  _47
REMARK   18  A    between atoms: _50  and  _52
REMARK   19  A    between atoms: _52  and  _53
REMARK   20  A    between atoms: _55  and  _57
REMARK   21  A    between atoms: _57  and  _58
REMARK   22  A    between atoms: _61  and  _63
REMARK   23  A    between atoms: _63  and  _64
REMARK   24  A    between atoms: _63  and  _66
REMARK   25  A    between atoms: _66  and  _67
REMARK   26  A    between atoms: _67  and  _68
REMARK   27  A    between atoms: _73  and  _75
REMARK   28  A    between atoms: _75  and  _76
REMARK   29  A    between atoms: _75  and  _78
REMARK   30  A    between atoms: _78  and  _79
REMARK   31  A    between atoms: _84  and  _86
REMARK   32  A    between atoms: _86  and  _87
REMARK   33  A    between atoms: _86  and  _89
REMARK   34  A    between atoms: _89  and  _90
REMARK   35  A    between atoms: _92  and  _94
REMARK   36  A    between atoms: _94  and  _95
REMARK   37  A    between atoms: _94  and  _97
REMARK   38  A    between atoms: _100  and  _102
REMARK   39  A    between atoms: _102  and  _103
REMARK   40  A    between atoms: _102  and  _105
REMARK   41  A    between atoms: _105  and  _106
REMARK   42  A    between atoms: _108  and  _110
REMARK   43  A    between atoms: _110  and  _111
REMARK   44  A    between atoms: _114  and  _116
REMARK   45  A    between atoms: _116  and  _117
REMARK   46  A    between atoms: _116  and  _119
REMARK   47  A    between atoms: _119  and  _120
REMARK   48  A    between atoms: _130  and  _132
REMARK   49  A    between atoms: _132  and  _133
REMARK   50  A    between atoms: _132  and  _135
REMARK   51  A    between atoms: _138  and  _140
REMARK   52  A    between atoms: _140  and  _141
REMARK   53  A    between atoms: _140  and  _143
REMARK   54  A    between atoms: _143  and  _144
REMARK   55  A    between atoms: _144  and  _145
REMARK   56  A    between atoms: _150  and  _152
REMARK   57  A    between atoms: _152  and  _153
REMARK   58  A    between atoms: _155  and  _157
REMARK   59  A    between atoms: _157  and  _158
REMARK   60  A    between atoms: _161  and  _163
REMARK   61  A    between atoms: _163  and  _164
REMARK   62  A    between atoms: _163  and  _166
REMARK   63  A    between atoms: _166  and  _167
REMARK   64  A    between atoms: _170  and  _172
REMARK   65  A    between atoms: _172  and  _173
REMARK   66  A    between atoms: _175  and  _177
REMARK   67  A    between atoms: _177  and  _178
REMARK   68  A    between atoms: _180  and  _182
REMARK   69  A    between atoms: _182  and  _183
REMARK   70  A    between atoms: _182  and  _185
REMARK   71  A    between atoms: _185  and  _186
REMARK   72  A    between atoms: _186  and  _187
REMARK   73  A    between atoms: _187  and  _188
REMARK   74  A    between atoms: _188  and  _189
REMARK   75  A    between atoms: _193  and  _195
REMARK   76  A    between atoms: _195  and  _196
REMARK   77  A    between atoms: _195  and  _198
REMARK   78  A    between atoms: _198  and  _199
REMARK   79  A    between atoms: _204  and  _205
REMARK   80  A    between atoms: _207  and  _209
REMARK   81  A    between atoms: _209  and  _210
REMARK   82  A    between atoms: _209  and  _212
REMARK   83  A    between atoms: _212  and  _213
REMARK   84  A    between atoms: _223  and  _225
REMARK   85  A    between atoms: _225  and  _226
REMARK   86  A    between atoms: _225  and  _228
REMARK   87  A    between atoms: _228  and  _229
REMARK   88  A    between atoms: _232  and  _234
REMARK   89  A    between atoms: _234  and  _235
REMARK   90  A    between atoms: _234  and  _237
REMARK   91  A    between atoms: _240  and  _242
REMARK   92  A    between atoms: _242  and  _243
REMARK   93  A    between atoms: _242  and  _245
REMARK   94  A    between atoms: _245  and  _246
REMARK   95  A    between atoms: _249  and  _251
REMARK   96  A    between atoms: _251  and  _252
REMARK   97  A    between atoms: _251  and  _254
REMARK   98  A    between atoms: _257  and  _258
REMARK   99  A    between atoms: _263  and  _265
REMARK  100  A    between atoms: _265  and  _266
REMARK  101  A    between atoms: _265  and  _268
REMARK  102  A    between atoms: _268  and  _269
REMARK  103  A    between atoms: _274  and  _275
REMARK  104  A    between atoms: _278  and  _279
REMARK  105  A    between atoms: _284  and  _286
REMARK  106  A    between atoms: _286  and  _287
REMARK  107  A    between atoms: _286  and  _289
REMARK  108  A    between atoms: _289  and  _290
REMARK  109  A    between atoms: _293  and  _295
REMARK  110  A    between atoms: _295  and  _296
REMARK  111  A    between atoms: _295  and  _298
REMARK  112  A    between atoms: _298  and  _299
REMARK  113  A    between atoms: _302  and  _304
REMARK  114  A    between atoms: _304  and  _305
REMARK  115  A    between atoms: _307  and  _309
REMARK  116  A    between atoms: _309  and  _310
REMARK  117  A    between atoms: _309  and  _312
REMARK  118  A    between atoms: _312  and  _313
REMARK  119  A    between atoms: _313  and  _314
REMARK  120  A    between atoms: _314  and  _315
REMARK  121  A    between atoms: _325  and  _326
REMARK  122  A    between atoms: _331  and  _333
REMARK  123  A    between atoms: _333  and  _334
REMARK  124  A    between atoms: _333  and  _336
REMARK  125  A    between atoms: _336  and  _337
REMARK  126  A    between atoms: _340  and  _342
REMARK  127  A    between atoms: _342  and  _343
REMARK  128  A    between atoms: _342  and  _345
REMARK  129  A    between atoms: _348  and  _350
REMARK  130  A    between atoms: _350  and  _351
REMARK  131  A    between atoms: _350  and  _353
REMARK  132  A    between atoms: _353  and  _354
REMARK  133  A    between atoms: _357  and  _359
REMARK  134  A    between atoms: _359  and  _360
REMARK  135  A    between atoms: _359  and  _362
REMARK  136  A    between atoms: _362  and  _363
REMARK  137  A    between atoms: _366  and  _368
REMARK  138  A    between atoms: _368  and  _369
REMARK  139  A    between atoms: _371  and  _373
REMARK  140  A    between atoms: _373  and  _374
REMARK  141  A    between atoms: _377  and  _379
REMARK  142  A    between atoms: _379  and  _380
REMARK  143  A    between atoms: _379  and  _382
REMARK  144  A    between atoms: _382  and  _383
REMARK  145  A    between atoms: _383  and  _384
REMARK  146  A    between atoms: _389  and  _391
REMARK  147  A    between atoms: _391  and  _392
REMARK  148  A    between atoms: _391  and  _394
REMARK  149  A    between atoms: _394  and  _395
REMARK  150  A    between atoms: _400  and  _402
REMARK  151  A    between atoms: _402  and  _403
REMARK  152  A    between atoms: _402  and  _405
REMARK  153  A    between atoms: _405  and  _406
REMARK  154  A    between atoms: _408  and  _410
REMARK  155  A    between atoms: _410  and  _411
REMARK  156  A    between atoms: _410  and  _413
REMARK  157  A    between atoms: _416  and  _418
REMARK  158  A    between atoms: _418  and  _419
REMARK  159  A    between atoms: _418  and  _421
REMARK  160  A    between atoms: _421  and  _422
REMARK  161  A    between atoms: _424  and  _426
REMARK  162  A    between atoms: _426  and  _427
REMARK  163  A    between atoms: _430  and  _432
REMARK  164  A    between atoms: _432  and  _433
REMARK  165  A    between atoms: _432  and  _435
REMARK  166  A    between atoms: _435  and  _436
REMARK  167  A    between atoms: _446  and  _448
REMARK  168  A    between atoms: _448  and  _449
REMARK  169  A    between atoms: _448  and  _451
REMARK  170  A    between atoms: _454  and  _456
REMARK  171  A    between atoms: _456  and  _457
REMARK  172  A    between atoms: _456  and  _459
REMARK  173  A    between atoms: _459  and  _460
REMARK  174  A    between atoms: _460  and  _461
REMARK  175  A    between atoms: _466  and  _468
REMARK  176  A    between atoms: _468  and  _469
REMARK  177  A    between atoms: _471  and  _473
REMARK  178  A    between atoms: _473  and  _474
REMARK  179  A    between atoms: _477  and  _479
REMARK  180  A    between atoms: _479  and  _480
REMARK  181  A    between atoms: _479  and  _482
REMARK  182  A    between atoms: _482  and  _483
REMARK  183  A    between atoms: _486  and  _488
REMARK  184  A    between atoms: _488  and  _489
REMARK  185  A    between atoms: _491  and  _493
REMARK  186  A    between atoms: _493  and  _494
REMARK  187  A    between atoms: _496  and  _498
REMARK  188  A    between atoms: _498  and  _499
REMARK  189  A    between atoms: _498  and  _501
REMARK  190  A    between atoms: _501  and  _502
REMARK  191  A    between atoms: _502  and  _503
REMARK  192  A    between atoms: _503  and  _504
REMARK  193  A    between atoms: _504  and  _505
REMARK  194  A    between atoms: _509  and  _511
REMARK  195  A    between atoms: _511  and  _512
REMARK  196  A    between atoms: _511  and  _514
REMARK  197  A    between atoms: _514  and  _515
REMARK  198  A    between atoms: _515  and  _516
REMARK  199  A    between atoms: _516  and  _517
REMARK  200  A    between atoms: _526  and  _528
REMARK  201  A    between atoms: _528  and  _529
REMARK  202  A    between atoms: _528  and  _531
REMARK  203  A    between atoms: _531  and  _532
REMARK  204  A    between atoms: _537  and  _538
REMARK  205  A    between atoms: _540  and  _542
REMARK  206  A    between atoms: _542  and  _543
REMARK  207  A    between atoms: _542  and  _545
REMARK  208  A    between atoms: _545  and  _546
REMARK  209  A    between atoms: _556  and  _558
REMARK  210  A    between atoms: _558  and  _559
REMARK  211  A    between atoms: _558  and  _561
REMARK  212  A    between atoms: _561  and  _562
REMARK  213  A    between atoms: _564  and  _566
REMARK  214  A    between atoms: _566  and  _567
REMARK  215  A    between atoms: _566  and  _569
REMARK  216  A    between atoms: _569  and  _570
REMARK  217  A    between atoms: _573  and  _575
REMARK  218  A    between atoms: _575  and  _576
REMARK  219  A    between atoms: _575  and  _578
REMARK  220  A    between atoms: _581  and  _583
REMARK  221  A    between atoms: _583  and  _584
REMARK  222  A    between atoms: _583  and  _586
REMARK  223  A    between atoms: _586  and  _587
REMARK  224  A    between atoms: _590  and  _592
REMARK  225  A    between atoms: _592  and  _593
REMARK  226  A    between atoms: _592  and  _595
REMARK  227  A    between atoms: _598  and  _599
REMARK  228  A    between atoms: _604  and  _606
REMARK  229  A    between atoms: _606  and  _607
REMARK  230  A    between atoms: _606  and  _609
REMARK  231  A    between atoms: _609  and  _610
REMARK  232  A    between atoms: _615  and  _616
REMARK  233  A    between atoms: _619  and  _620
REMARK  234  A    between atoms: _625  and  _627
REMARK  235  A    between atoms: _627  and  _628
REMARK  236  A    between atoms: _627  and  _630
REMARK  237  A    between atoms: _630  and  _631
REMARK  238  A    between atoms: _634  and  _636
REMARK  239  A    between atoms: _636  and  _637
REMARK  240  A    between atoms: _636  and  _639
REMARK  241  A    between atoms: _639  and  _640
REMARK  242  A    between atoms: _643  and  _645
REMARK  243  A    between atoms: _645  and  _646
REMARK  244  A    between atoms: _648  and  _650
REMARK  245  A    between atoms: _650  and  _651
REMARK  246  A    between atoms: _650  and  _653
REMARK  247  A    between atoms: _653  and  _654
REMARK  248  A    between atoms: _654  and  _655
REMARK  249  A    between atoms: _655  and  _656
REMARK  250  A    between atoms: _665  and  _667
REMARK  251  A    between atoms: _667  and  _668
REMARK  252  A    between atoms: _667  and  _670
REMARK  253  A    between atoms: _670  and  _671
REMARK                            x       y       z     vdW  Elec       q    Type
REMARK                         _______ _______ _______ _____ _____    ______ ____
ROOT
ATOM      1  O   HOH     1       5.326   2.989  15.030  0.00  0.00    +0.000 OA
ENDROOT
TORSDOF 0
REMARK  Name = ../refined-set-2016/3slz/3slz_pocket.pdb
REMARK  253 active torsions:
REMARK  status: ('A' for Active; 'I' for Inactive)
REMARK    1  A    between atoms: _2  and  _3
REMARK    2  A    between atoms: _9  and  _10
REMARK    3  A    between atoms: _15  and  _17
REMARK    4  A    between atoms: _17  and  _18
REMARK    5  A    between atoms: _17  and  _20
REMARK    6  A    between atoms: _20  and  _21
REMARK    7  A    between atoms: _24  and  _26
REMARK    8  A    between atoms: _26  and  _27
REMARK    9  A    between atoms: _26  and  _29
REMARK   10  A    between atoms: _32  and  _34
REMARK   11  A    between atoms: _34  and  _35
REMARK   12  A    between atoms: _34  and  _37
REMARK   13  A    between atoms: _37  and  _38
REMARK   14  A    between atoms: _41  and  _43
REMARK   15  A    between atoms: _43  and  _44
REMARK   16  A    between atoms: _43  and  _46
REMARK   17  A    between atoms: _46  and  _47
REMARK   18  A    between atoms: _50  and  _52
REMARK   19  A    between atoms: _52  and  _53
REMARK   20  A    between atoms: _55  and  _57
REMARK   21  A    between atoms: _57  and  _58
REMARK   22  A    between atoms: _61  and  _63
REMARK   23  A    between atoms: _63  and  _64
REMARK   24  A    between atoms: _63  and  _66
REMARK   25  A    between atoms: _66  and  _67
REMARK   26  A    between atoms: _67  and  _68
REMARK   27  A    between atoms: _73  and  _75
REMARK   28  A    between atoms: _75  and  _76
REMARK   29  A    between atoms: _75  and  _78
REMARK   30  A    between atoms: _78  and  _79
REMARK   31  A    between atoms: _84  and  _86
REMARK   32  A    between atoms: _86  and  _87
REMARK   33  A    between atoms: _86  and  _89
REMARK   34  A    between atoms: _89  and  _90
REMARK   35  A    between atoms: _92  and  _94
REMARK   36  A    between atoms: _94  and  _95
REMARK   37  A    between atoms: _94  and  _97
REMARK   38  A    between atoms: _100  and  _102
REMARK   39  A    between atoms: _102  and  _103
REMARK   40  A    between atoms: _102  and  _105
REMARK   41  A    between atoms: _105  and  _106
REMARK   42  A    between atoms: _108  and  _110
REMARK   43  A    between atoms: _110  and  _111
REMARK   44  A    between atoms: _114  and  _116
REMARK   45  A    between atoms: _116  and  _117
REMARK   46  A    between atoms: _116  and  _119
REMARK   47  A    between atoms: _119  and  _120
REMARK   48  A    between atoms: _130  and  _132
REMARK   49  A    between atoms: _132  and  _133
REMARK   50  A    between atoms: _132  and  _135
REMARK   51  A    between atoms: _138  and  _140
REMARK   52  A    between atoms: _140  and  _141
REMARK   53  A    between atoms: _140  and  _143
REMARK   54  A    between atoms: _143  and  _144
REMARK   55  A    between atoms: _144  and  _145
REMARK   56  A    between atoms: _150  and  _152
REMARK   57  A    between atoms: _152  and  _153
REMARK   58  A    between atoms: _155  and  _157
REMARK   59  A    between atoms: _157  and  _158
REMARK   60  A    between atoms: _161  and  _163
REMARK   61  A    between atoms: _163  and  _164
REMARK   62  A    between atoms: _163  and  _166
REMARK   63  A    between atoms: _166  and  _167
REMARK   64  A    between atoms: _170  and  _172
REMARK   65  A    between atoms: _172  and  _173
REMARK   66  A    between atoms: _175  and  _177
REMARK   67  A    between atoms: _177  and  _178
REMARK   68  A    between atoms: _180  and  _182
REMARK   69  A    between atoms: _182  and  _183
REMARK   70  A    between atoms: _182  and  _185
REMARK   71  A    between atoms: _185  and  _186
REMARK   72  A    between atoms: _186  and  _187
REMARK   73  A    between atoms: _187  and  _188
REMARK   74  A    between atoms: _188  and  _189
REMARK   75  A    between atoms: _193  and  _195
REMARK   76  A    between atoms: _195  and  _196
REMARK   77  A    between atoms: _195  and  _198
REMARK   78  A    between atoms: _198  and  _199
REMARK   79  A    between atoms: _204  and  _205
REMARK   80  A    between atoms: _207  and  _209
REMARK   81  A    between atoms: _209  and  _210
REMARK   82  A    between atoms: _209  and  _212
REMARK   83  A    between atoms: _212  and  _213
REMARK   84  A    between atoms: _223  and  _225
REMARK   85  A    between atoms: _225  and  _226
REMARK   86  A    between atoms: _225  and  _228
REMARK   87  A    between atoms: _228  and  _229
REMARK   88  A    between atoms: _232  and  _234
REMARK   89  A    between atoms: _234  and  _235
REMARK   90  A    between atoms: _234  and  _237
REMARK   91  A    between atoms: _240  and  _242
REMARK   92  A    between atoms: _242  and  _243
REMARK   93  A    between atoms: _242  and  _245
REMARK   94  A    between atoms: _245  and  _246
REMARK   95  A    between atoms: _249  and  _251
REMARK   96  A    between atoms: _251  and  _252
REMARK   97  A    between atoms: _251  and  _254
REMARK   98  A    between atoms: _257  and  _258
REMARK   99  A    between atoms: _263  and  _265
REMARK  100  A    between atoms: _265  and  _266
REMARK  101  A    between atoms: _265  and  _268
REMARK  102  A    between atoms: _268  and  _269
REMARK  103  A    between atoms: _274  and  _275
REMARK  104  A    between atoms: _278  and  _279
REMARK  105  A    between atoms: _284  and  _286
REMARK  106  A    between atoms: _286  and  _287
REMARK  107  A    between atoms: _286  and  _289
REMARK  108  A    between atoms: _289  and  _290
REMARK  109  A    between atoms: _293  and  _295
REMARK  110  A    between atoms: _295  and  _296
REMARK  111  A    between atoms: _295  and  _298
REMARK  112  A    between atoms: _298  and  _299
REMARK  113  A    between atoms: _302  and  _304
REMARK  114  A    between atoms: _304  and  _305
REMARK  115  A    between atoms: _307  and  _309
REMARK  116  A    between atoms: _309  and  _310
REMARK  117  A    between atoms: _309  and  _312
REMARK  118  A    between atoms: _312  and  _313
REMARK  119  A    between atoms: _313  and  _314
REMARK  120  A    between atoms: _314  and  _315
REMARK  121  A    between atoms: _325  and  _326
REMARK  122  A    between atoms: _331  and  _333
REMARK  123  A    between atoms: _333  and  _334
REMARK  124  A    between atoms: _333  and  _336
REMARK  125  A    between atoms: _336  and  _337
REMARK  126  A    between atoms: _340  and  _342
REMARK  127  A    between atoms: _342  and  _343
REMARK  128  A    between atoms: _342  and  _345
REMARK  129  A    between atoms: _348  and  _350
REMARK  130  A    between atoms: _350  and  _351
REMARK  131  A    between atoms: _350  and  _353
REMARK  132  A    between atoms: _353  and  _354
REMARK  133  A    between atoms: _357  and  _359
REMARK  134  A    between atoms: _359  and  _360
REMARK  135  A    between atoms: _359  and  _362
REMARK  136  A    between atoms: _362  and  _363
REMARK  137  A    between atoms: _366  and  _368
REMARK  138  A    between atoms: _368  and  _369
REMARK  139  A    between atoms: _371  and  _373
REMARK  140  A    between atoms: _373  and  _374
REMARK  141  A    between atoms: _377  and  _379
REMARK  142  A    between atoms: _379  and  _380
REMARK  143  A    between atoms: _379  and  _382
REMARK  144  A    between atoms: _382  and  _383
REMARK  145  A    between atoms: _383  and  _384
REMARK  146  A    between atoms: _389  and  _391
REMARK  147  A    between atoms: _391  and  _392
REMARK  148  A    between atoms: _391  and  _394
REMARK  149  A    between atoms: _394  and  _395
REMARK  150  A    between atoms: _400  and  _402
REMARK  151  A    between atoms: _402  and  _403
REMARK  152  A    between atoms: _402  and  _405
REMARK  153  A    between atoms: _405  and  _406
REMARK  154  A    between atoms: _408  and  _410
REMARK  155  A    between atoms: _410  and  _411
REMARK  156  A    between atoms: _410  and  _413
REMARK  157  A    between atoms: _416  and  _418
REMARK  158  A    between atoms: _418  and  _419
REMARK  159  A    between atoms: _418  and  _421
REMARK  160  A    between atoms: _421  and  _422
REMARK  161  A    between atoms: _424  and  _426
REMARK  162  A    between atoms: _426  and  _427
REMARK  163  A    between atoms: _430  and  _432
REMARK  164  A    between atoms: _432  and  _433
REMARK  165  A    between atoms: _432  and  _435
REMARK  166  A    between atoms: _435  and  _436
REMARK  167  A    between atoms: _446  and  _448
REMARK  168  A    between atoms: _448  and  _449
REMARK  169  A    between atoms: _448  and  _451
REMARK  170  A    between atoms: _454  and  _456
REMARK  171  A    between atoms: _456  and  _457
REMARK  172  A    between atoms: _456  and  _459
REMARK  173  A    between atoms: _459  and  _460
REMARK  174  A    between atoms: _460  and  _461
REMARK  175  A    between atoms: _466  and  _468
REMARK  176  A    between atoms: _468  and  _469
REMARK  177  A    between atoms: _471  and  _473
REMARK  178  A    between atoms: _473  and  _474
REMARK  179  A    between atoms: _477  and  _479
REMARK  180  A    between atoms: _479  and  _480
REMARK  181  A    between atoms: _479  and  _482
REMARK  182  A    between atoms: _482  and  _483
REMARK  183  A    between atoms: _486  and  _488
REMARK  184  A    between atoms: _488  and  _489
REMARK  185  A    between atoms: _491  and  _493
REMARK  186  A    between atoms: _493  and  _494
REMARK  187  A    between atoms: _496  and  _498
REMARK  188  A    between atoms: _498  and  _499
REMARK  189  A    between atoms: _498  and  _501
REMARK  190  A    between atoms: _501  and  _502
REMARK  191  A    between atoms: _502  and  _503
REMARK  192  A    between atoms: _503  and  _504
REMARK  193  A    between atoms: _504  and  _505
REMARK  194  A    between atoms: _509  and  _511
REMARK  195  A    between atoms: _511  and  _512
REMARK  196  A    between atoms: _511  and  _514
REMARK  197  A    between atoms: _514  and  _515
REMARK  198  A    between atoms: _515  and  _516
REMARK  199  A    between atoms: _516  and  _517
REMARK  200  A    between atoms: _526  and  _528
REMARK  201  A    between atoms: _528  and  _529
REMARK  202  A    between atoms: _528  and  _531
REMARK  203  A    between atoms: _531  and  _532
REMARK  204  A    between atoms: _537  and  _538
REMARK  205  A    between atoms: _540  and  _542
REMARK  206  A    between atoms: _542  and  _543
REMARK  207  A    between atoms: _542  and  _545
REMARK  208  A    between atoms: _545  and  _546
REMARK  209  A    between atoms: _556  and  _558
REMARK  210  A    between atoms: _558  and  _559
REMARK  211  A    between atoms: _558  and  _561
REMARK  212  A    between atoms: _561  and  _562
REMARK  213  A    between atoms: _564  and  _566
REMARK  214  A    between atoms: _566  and  _567
REMARK  215  A    between atoms: _566  and  _569
REMARK  216  A    between atoms: _569  and  _570
REMARK  217  A    between atoms: _573  and  _575
REMARK  218  A    between atoms: _575  and  _576
REMARK  219  A    between atoms: _575  and  _578
REMARK  220  A    between atoms: _581  and  _583
REMARK  221  A    between atoms: _583  and  _584
REMARK  222  A    between atoms: _583  and  _586
REMARK  223  A    between atoms: _586  and  _587
REMARK  224  A    between atoms: _590  and  _592
REMARK  225  A    between atoms: _592  and  _593
REMARK  226  A    between atoms: _592  and  _595
REMARK  227  A    between atoms: _598  and  _599
REMARK  228  A    between atoms: _604  and  _606
REMARK  229  A    between atoms: _606  and  _607
REMARK  230  A    between atoms: _606  and  _609
REMARK  231  A    between atoms: _609  and  _610
REMARK  232  A    between atoms: _615  and  _616
REMARK  233  A    between atoms: _619  and  _620
REMARK  234  A    between atoms: _625  and  _627
REMARK  235  A    between atoms: _627  and  _628
REMARK  236  A    between atoms: _627  and  _630
REMARK  237  A    between atoms: _630  and  _631
REMARK  238  A    between atoms: _634  and  _636
REMARK  239  A    between atoms: _636  and  _637
REMARK  240  A    between atoms: _636  and  _639
REMARK  241  A    between atoms: _639  and  _640
REMARK  242  A    between atoms: _643  and  _645
REMARK  243  A    between atoms: _645  and  _646
REMARK  244  A    between atoms: _648  and  _650
REMARK  245  A    between atoms: _650  and  _651
REMARK  246  A    between atoms: _650  and  _653
REMARK  247  A    between atoms: _653  and  _654
REMARK  248  A    between atoms: _654  and  _655
REMARK  249  A    between atoms: _655  and  _656
REMARK  250  A    between atoms: _665  and  _667
REMARK  251  A    between atoms: _667  and  _668
REMARK  252  A    between atoms: _667  and  _670
REMARK  253  A    between atoms: _670  and  _671
REMARK                            x       y       z     vdW  Elec       q    Type
REMARK                         _______ _______ _______ _____ _____    ______ ____
ROOT
ATOM      1  O   HOH     1      -5.873   4.717  -5.155  0.00  0.00    +0.000 OA
ENDROOT
TORSDOF 0
REMARK  Name = ../refined-set-2016/3slz/3slz_pocket.pdb
REMARK  253 active torsions:
REMARK  status: ('A' for Active; 'I' for Inactive)
REMARK    1  A    between atoms: _2  and  _3
REMARK    2  A    between atoms: _9  and  _10
REMARK    3  A    between atoms: _15  and  _17
REMARK    4  A    between atoms: _17  and  _18
REMARK    5  A    between atoms: _17  and  _20
REMARK    6  A    between atoms: _20  and  _21
REMARK    7  A    between atoms: _24  and  _26
REMARK    8  A    between atoms: _26  and  _27
REMARK    9  A    between atoms: _26  and  _29
REMARK   10  A    between atoms: _32  and  _34
REMARK   11  A    between atoms: _34  and  _35
REMARK   12  A    between atoms: _34  and  _37
REMARK   13  A    between atoms: _37  and  _38
REMARK   14  A    between atoms: _41  and  _43
REMARK   15  A    between atoms: _43  and  _44
REMARK   16  A    between atoms: _43  and  _46
REMARK   17  A    between atoms: _46  and  _47
REMARK   18  A    between atoms: _50  and  _52
REMARK   19  A    between atoms: _52  and  _53
REMARK   20  A    between atoms: _55  and  _57
REMARK   21  A    between atoms: _57  and  _58
REMARK   22  A    between atoms: _61  and  _63
REMARK   23  A    between atoms: _63  and  _64
REMARK   24  A    between atoms: _63  and  _66
REMARK   25  A    between atoms: _66  and  _67
REMARK   26  A    between atoms: _67  and  _68
REMARK   27  A    between atoms: _73  and  _75
REMARK   28  A    between atoms: _75  and  _76
REMARK   29  A    between atoms: _75  and  _78
REMARK   30  A    between atoms: _78  and  _79
REMARK   31  A    between atoms: _84  and  _86
REMARK   32  A    between atoms: _86  and  _87
REMARK   33  A    between atoms: _86  and  _89
REMARK   34  A    between atoms: _89  and  _90
REMARK   35  A    between atoms: _92  and  _94
REMARK   36  A    between atoms: _94  and  _95
REMARK   37  A    between atoms: _94  and  _97
REMARK   38  A    between atoms: _100  and  _102
REMARK   39  A    between atoms: _102  and  _103
REMARK   40  A    between atoms: _102  and  _105
REMARK   41  A    between atoms: _105  and  _106
REMARK   42  A    between atoms: _108  and  _110
REMARK   43  A    between atoms: _110  and  _111
REMARK   44  A    between atoms: _114  and  _116
REMARK   45  A    between atoms: _116  and  _117
REMARK   46  A    between atoms: _116  and  _119
REMARK   47  A    between atoms: _119  and  _120
REMARK   48  A    between atoms: _130  and  _132
REMARK   49  A    between atoms: _132  and  _133
REMARK   50  A    between atoms: _132  and  _135
REMARK   51  A    between atoms: _138  and  _140
REMARK   52  A    between atoms: _140  and  _141
REMARK   53  A    between atoms: _140  and  _143
REMARK   54  A    between atoms: _143  and  _144
REMARK   55  A    between atoms: _144  and  _145
REMARK   56  A    between atoms: _150  and  _152
REMARK   57  A    between atoms: _152  and  _153
REMARK   58  A    between atoms: _155  and  _157
REMARK   59  A    between atoms: _157  and  _158
REMARK   60  A    between atoms: _161  and  _163
REMARK   61  A    between atoms: _163  and  _164
REMARK   62  A    between atoms: _163  and  _166
REMARK   63  A    between atoms: _166  and  _167
REMARK   64  A    between atoms: _170  and  _172
REMARK   65  A    between atoms: _172  and  _173
REMARK   66  A    between atoms: _175  and  _177
REMARK   67  A    between atoms: _177  and  _178
REMARK   68  A    between atoms: _180  and  _182
REMARK   69  A    between atoms: _182  and  _183
REMARK   70  A    between atoms: _182  and  _185
REMARK   71  A    between atoms: _185  and  _186
REMARK   72  A    between atoms: _186  and  _187
REMARK   73  A    between atoms: _187  and  _188
REMARK   74  A    between atoms: _188  and  _189
REMARK   75  A    between atoms: _193  and  _195
REMARK   76  A    between atoms: _195  and  _196
REMARK   77  A    between atoms: _195  and  _198
REMARK   78  A    between atoms: _198  and  _199
REMARK   79  A    between atoms: _204  and  _205
REMARK   80  A    between atoms: _207  and  _209
REMARK   81  A    between atoms: _209  and  _210
REMARK   82  A    between atoms: _209  and  _212
REMARK   83  A    between atoms: _212  and  _213
REMARK   84  A    between atoms: _223  and  _225
REMARK   85  A    between atoms: _225  and  _226
REMARK   86  A    between atoms: _225  and  _228
REMARK   87  A    between atoms: _228  and  _229
REMARK   88  A    between atoms: _232  and  _234
REMARK   89  A    between atoms: _234  and  _235
REMARK   90  A    between atoms: _234  and  _237
REMARK   91  A    between atoms: _240  and  _242
REMARK   92  A    between atoms: _242  and  _243
REMARK   93  A    between atoms: _242  and  _245
REMARK   94  A    between atoms: _245  and  _246
REMARK   95  A    between atoms: _249  and  _251
REMARK   96  A    between atoms: _251  and  _252
REMARK   97  A    between atoms: _251  and  _254
REMARK   98  A    between atoms: _257  and  _258
REMARK   99  A    between atoms: _263  and  _265
REMARK  100  A    between atoms: _265  and  _266
REMARK  101  A    between atoms: _265  and  _268
REMARK  102  A    between atoms: _268  and  _269
REMARK  103  A    between atoms: _274  and  _275
REMARK  104  A    between atoms: _278  and  _279
REMARK  105  A    between atoms: _284  and  _286
REMARK  106  A    between atoms: _286  and  _287
REMARK  107  A    between atoms: _286  and  _289
REMARK  108  A    between atoms: _289  and  _290
REMARK  109  A    between atoms: _293  and  _295
REMARK  110  A    between atoms: _295  and  _296
REMARK  111  A    between atoms: _295  and  _298
REMARK  112  A    between atoms: _298  and  _299
REMARK  113  A    between atoms: _302  and  _304
REMARK  114  A    between atoms: _304  and  _305
REMARK  115  A    between atoms: _307  and  _309
REMARK  116  A    between atoms: _309  and  _310
REMARK  117  A    between atoms: _309  and  _312
REMARK  118  A    between atoms: _312  and  _313
REMARK  119  A    between atoms: _313  and  _314
REMARK  120  A    between atoms: _314  and  _315
REMARK  121  A    between atoms: _325  and  _326
REMARK  122  A    between atoms: _331  and  _333
REMARK  123  A    between atoms: _333  and  _334
REMARK  124  A    between atoms: _333  and  _336
REMARK  125  A    between atoms: _336  and  _337
REMARK  126  A    between atoms: _340  and  _342
REMARK  127  A    between atoms: _342  and  _343
REMARK  128  A    between atoms: _342  and  _345
REMARK  129  A    between atoms: _348  and  _350
REMARK  130  A    between atoms: _350  and  _351
REMARK  131  A    between atoms: _350  and  _353
REMARK  132  A    between atoms: _353  and  _354
REMARK  133  A    between atoms: _357  and  _359
REMARK  134  A    between atoms: _359  and  _360
REMARK  135  A    between atoms: _359  and  _362
REMARK  136  A    between atoms: _362  and  _363
REMARK  137  A    between atoms: _366  and  _368
REMARK  138  A    between atoms: _368  and  _369
REMARK  139  A    between atoms: _371  and  _373
REMARK  140  A    between atoms: _373  and  _374
REMARK  141  A    between atoms: _377  and  _379
REMARK  142  A    between atoms: _379  and  _380
REMARK  143  A    between atoms: _379  and  _382
REMARK  144  A    between atoms: _382  and  _383
REMARK  145  A    between atoms: _383  and  _384
REMARK  146  A    between atoms: _389  and  _391
REMARK  147  A    between atoms: _391  and  _392
REMARK  148  A    between atoms: _391  and  _394
REMARK  149  A    between atoms: _394  and  _395
REMARK  150  A    between atoms: _400  and  _402
REMARK  151  A    between atoms: _402  and  _403
REMARK  152  A    between atoms: _402  and  _405
REMARK  153  A    between atoms: _405  and  _406
REMARK  154  A    between atoms: _408  and  _410
REMARK  155  A    between atoms: _410  and  _411
REMARK  156  A    between atoms: _410  and  _413
REMARK  157  A    between atoms: _416  and  _418
REMARK  158  A    between atoms: _418  and  _419
REMARK  159  A    between atoms: _418  and  _421
REMARK  160  A    between atoms: _421  and  _422
REMARK  161  A    between atoms: _424  and  _426
REMARK  162  A    between atoms: _426  and  _427
REMARK  163  A    between atoms: _430  and  _432
REMARK  164  A    between atoms: _432  and  _433
REMARK  165  A    between atoms: _432  and  _435
REMARK  166  A    between atoms: _435  and  _436
REMARK  167  A    between atoms: _446  and  _448
REMARK  168  A    between atoms: _448  and  _449
REMARK  169  A    between atoms: _448  and  _451
REMARK  170  A    between atoms: _454  and  _456
REMARK  171  A    between atoms: _456  and  _457
REMARK  172  A    between atoms: _456  and  _459
REMARK  173  A    between atoms: _459  and  _460
REMARK  174  A    between atoms: _460  and  _461
REMARK  175  A    between atoms: _466  and  _468
REMARK  176  A    between atoms: _468  and  _469
REMARK  177  A    between atoms: _471  and  _473
REMARK  178  A    between atoms: _473  and  _474
REMARK  179  A    between atoms: _477  and  _479
REMARK  180  A    between atoms: _479  and  _480
REMARK  181  A    between atoms: _479  and  _482
REMARK  182  A    between atoms: _482  and  _483
REMARK  183  A    between atoms: _486  and  _488
REMARK  184  A    between atoms: _488  and  _489
REMARK  185  A    between atoms: _491  and  _493
REMARK  186  A    between atoms: _493  and  _494
REMARK  187  A    between atoms: _496  and  _498
REMARK  188  A    between atoms: _498  and  _499
REMARK  189  A    between atoms: _498  and  _501
REMARK  190  A    between atoms: _501  and  _502
REMARK  191  A    between atoms: _502  and  _503
REMARK  192  A    between atoms: _503  and  _504
REMARK  193  A    between atoms: _504  and  _505
REMARK  194  A    between atoms: _509  and  _511
REMARK  195  A    between atoms: _511  and  _512
REMARK  196  A    between atoms: _511  and  _514
REMARK  197  A    between atoms: _514  and  _515
REMARK  198  A    between atoms: _515  and  _516
REMARK  199  A    between atoms: _516  and  _517
REMARK  200  A    between atoms: _526  and  _528
REMARK  201  A    between atoms: _528  and  _529
REMARK  202  A    between atoms: _528  and  _531
REMARK  203  A    between atoms: _531  and  _532
REMARK  204  A    between atoms: _537  and  _538
REMARK  205  A    between atoms: _540  and  _542
REMARK  206  A    between atoms: _542  and  _543
REMARK  207  A    between atoms: _542  and  _545
REMARK  208  A    between atoms: _545  and  _546
REMARK  209  A    between atoms: _556  and  _558
REMARK  210  A    between atoms: _558  and  _559
REMARK  211  A    between atoms: _558  and  _561
REMARK  212  A    between atoms: _561  and  _562
REMARK  213  A    between atoms: _564  and  _566
REMARK  214  A    between atoms: _566  and  _567
REMARK  215  A    between atoms: _566  and  _569
REMARK  216  A    between atoms: _569  and  _570
REMARK  217  A    between atoms: _573  and  _575
REMARK  218  A    between atoms: _575  and  _576
REMARK  219  A    between atoms: _575  and  _578
REMARK  220  A    between atoms: _581  and  _583
REMARK  221  A    between atoms: _583  and  _584
REMARK  222  A    between atoms: _583  and  _586
REMARK  223  A    between atoms: _586  and  _587
REMARK  224  A    between atoms: _590  and  _592
REMARK  225  A    between atoms: _592  and  _593
REMARK  226  A    between atoms: _592  and  _595
REMARK  227  A    between atoms: _598  and  _599
REMARK  228  A    between atoms: _604  and  _606
REMARK  229  A    between atoms: _606  and  _607
REMARK  230  A    between atoms: _606  and  _609
REMARK  231  A    between atoms: _609  and  _610
REMARK  232  A    between atoms: _615  and  _616
REMARK  233  A    between atoms: _619  and  _620
REMARK  234  A    between atoms: _625  and  _627
REMARK  235  A    between atoms: _627  and  _628
REMARK  236  A    between atoms: _627  and  _630
REMARK  237  A    between atoms: _630  and  _631
REMARK  238  A    between atoms: _634  and  _636
REMARK  239  A    between atoms: _636  and  _637
REMARK  240  A    between atoms: _636  and  _639
REMARK  241  A    between atoms: _639  and  _640
REMARK  242  A    between atoms: _643  and  _645
REMARK  243  A    between atoms: _645  and  _646
REMARK  244  A    between atoms: _648  and  _650
REMARK  245  A    between atoms: _650  and  _651
REMARK  246  A    between atoms: _650  and  _653
REMARK  247  A    between atoms: _653  and  _654
REMARK  248  A    between atoms: _654  and  _655
REMARK  249  A    between atoms: _655  and  _656
REMARK  250  A    between atoms: _665  and  _667
REMARK  251  A    between atoms: _667  and  _668
REMARK  252  A    between atoms: _667  and  _670
REMARK  253  A    between atoms: _670  and  _671
REMARK                            x       y       z     vdW  Elec       q    Type
REMARK                         _______ _______ _______ _____ _____    ______ ____
ROOT
ATOM      1  O   HOH     1     -13.878   8.512  -2.140  0.00  0.00    +0.000 OA
ENDROOT
TORSDOF 0
REMARK  Name = ../refined-set-2016/3slz/3slz_pocket.pdb
REMARK  253 active torsions:
REMARK  status: ('A' for Active; 'I' for Inactive)
REMARK    1  A    between atoms: _2  and  _3
REMARK    2  A    between atoms: _9  and  _10
REMARK    3  A    between atoms: _15  and  _17
REMARK    4  A    between atoms: _17  and  _18
REMARK    5  A    between atoms: _17  and  _20
REMARK    6  A    between atoms: _20  and  _21
REMARK    7  A    between atoms: _24  and  _26
REMARK    8  A    between atoms: _26  and  _27
REMARK    9  A    between atoms: _26  and  _29
REMARK   10  A    between atoms: _32  and  _34
REMARK   11  A    between atoms: _34  and  _35
REMARK   12  A    between atoms: _34  and  _37
REMARK   13  A    between atoms: _37  and  _38
REMARK   14  A    between atoms: _41  and  _43
REMARK   15  A    between atoms: _43  and  _44
REMARK   16  A    between atoms: _43  and  _46
REMARK   17  A    between atoms: _46  and  _47
REMARK   18  A    between atoms: _50  and  _52
REMARK   19  A    between atoms: _52  and  _53
REMARK   20  A    between atoms: _55  and  _57
REMARK   21  A    between atoms: _57  and  _58
REMARK   22  A    between atoms: _61  and  _63
REMARK   23  A    between atoms: _63  and  _64
REMARK   24  A    between atoms: _63  and  _66
REMARK   25  A    between atoms: _66  and  _67
REMARK   26  A    between atoms: _67  and  _68
REMARK   27  A    between atoms: _73  and  _75
REMARK   28  A    between atoms: _75  and  _76
REMARK   29  A    between atoms: _75  and  _78
REMARK   30  A    between atoms: _78  and  _79
REMARK   31  A    between atoms: _84  and  _86
REMARK   32  A    between atoms: _86  and  _87
REMARK   33  A    between atoms: _86  and  _89
REMARK   34  A    between atoms: _89  and  _90
REMARK   35  A    between atoms: _92  and  _94
REMARK   36  A    between atoms: _94  and  _95
REMARK   37  A    between atoms: _94  and  _97
REMARK   38  A    between atoms: _100  and  _102
REMARK   39  A    between atoms: _102  and  _103
REMARK   40  A    between atoms: _102  and  _105
REMARK   41  A    between atoms: _105  and  _106
REMARK   42  A    between atoms: _108  and  _110
REMARK   43  A    between atoms: _110  and  _111
REMARK   44  A    between atoms: _114  and  _116
REMARK   45  A    between atoms: _116  and  _117
REMARK   46  A    between atoms: _116  and  _119
REMARK   47  A    between atoms: _119  and  _120
REMARK   48  A    between atoms: _130  and  _132
REMARK   49  A    between atoms: _132  and  _133
REMARK   50  A    between atoms: _132  and  _135
REMARK   51  A    between atoms: _138  and  _140
REMARK   52  A    between atoms: _140  and  _141
REMARK   53  A    between atoms: _140  and  _143
REMARK   54  A    between atoms: _143  and  _144
REMARK   55  A    between atoms: _144  and  _145
REMARK   56  A    between atoms: _150  and  _152
REMARK   57  A    between atoms: _152  and  _153
REMARK   58  A    between atoms: _155  and  _157
REMARK   59  A    between atoms: _157  and  _158
REMARK   60  A    between atoms: _161  and  _163
REMARK   61  A    between atoms: _163  and  _164
REMARK   62  A    between atoms: _163  and  _166
REMARK   63  A    between atoms: _166  and  _167
REMARK   64  A    between atoms: _170  and  _172
REMARK   65  A    between atoms: _172  and  _173
REMARK   66  A    between atoms: _175  and  _177
REMARK   67  A    between atoms: _177  and  _178
REMARK   68  A    between atoms: _180  and  _182
REMARK   69  A    between atoms: _182  and  _183
REMARK   70  A    between atoms: _182  and  _185
REMARK   71  A    between atoms: _185  and  _186
REMARK   72  A    between atoms: _186  and  _187
REMARK   73  A    between atoms: _187  and  _188
REMARK   74  A    between atoms: _188  and  _189
REMARK   75  A    between atoms: _193  and  _195
REMARK   76  A    between atoms: _195  and  _196
REMARK   77  A    between atoms: _195  and  _198
REMARK   78  A    between atoms: _198  and  _199
REMARK   79  A    between atoms: _204  and  _205
REMARK   80  A    between atoms: _207  and  _209
REMARK   81  A    between atoms: _209  and  _210
REMARK   82  A    between atoms: _209  and  _212
REMARK   83  A    between atoms: _212  and  _213
REMARK   84  A    between atoms: _223  and  _225
REMARK   85  A    between atoms: _225  and  _226
REMARK   86  A    between atoms: _225  and  _228
REMARK   87  A    between atoms: _228  and  _229
REMARK   88  A    between atoms: _232  and  _234
REMARK   89  A    between atoms: _234  and  _235
REMARK   90  A    between atoms: _234  and  _237
REMARK   91  A    between atoms: _240  and  _242
REMARK   92  A    between atoms: _242  and  _243
REMARK   93  A    between atoms: _242  and  _245
REMARK   94  A    between atoms: _245  and  _246
REMARK   95  A    between atoms: _249  and  _251
REMARK   96  A    between atoms: _251  and  _252
REMARK   97  A    between atoms: _251  and  _254
REMARK   98  A    between atoms: _257  and  _258
REMARK   99  A    between atoms: _263  and  _265
REMARK  100  A    between atoms: _265  and  _266
REMARK  101  A    between atoms: _265  and  _268
REMARK  102  A    between atoms: _268  and  _269
REMARK  103  A    between atoms: _274  and  _275
REMARK  104  A    between atoms: _278  and  _279
REMARK  105  A    between atoms: _284  and  _286
REMARK  106  A    between atoms: _286  and  _287
REMARK  107  A    between atoms: _286  and  _289
REMARK  108  A    between atoms: _289  and  _290
REMARK  109  A    between atoms: _293  and  _295
REMARK  110  A    between atoms: _295  and  _296
REMARK  111  A    between atoms: _295  and  _298
REMARK  112  A    between atoms: _298  and  _299
REMARK  113  A    between atoms: _302  and  _304
REMARK  114  A    between atoms: _304  and  _305
REMARK  115  A    between atoms: _307  and  _309
REMARK  116  A    between atoms: _309  and  _310
REMARK  117  A    between atoms: _309  and  _312
REMARK  118  A    between atoms: _312  and  _313
REMARK  119  A    between atoms: _313  and  _314
REMARK  120  A    between atoms: _314  and  _315
REMARK  121  A    between atoms: _325  and  _326
REMARK  122  A    between atoms: _331  and  _333
REMARK  123  A    between atoms: _333  and  _334
REMARK  124  A    between atoms: _333  and  _336
REMARK  125  A    between atoms: _336  and  _337
REMARK  126  A    between atoms: _340  and  _342
REMARK  127  A    between atoms: _342  and  _343
REMARK  128  A    between atoms: _342  and  _345
REMARK  129  A    between atoms: _348  and  _350
REMARK  130  A    between atoms: _350  and  _351
REMARK  131  A    between atoms: _350  and  _353
REMARK  132  A    between atoms: _353  and  _354
REMARK  133  A    between atoms: _357  and  _359
REMARK  134  A    between atoms: _359  and  _360
REMARK  135  A    between atoms: _359  and  _362
REMARK  136  A    between atoms: _362  and  _363
REMARK  137  A    between atoms: _366  and  _368
REMARK  138  A    between atoms: _368  and  _369
REMARK  139  A    between atoms: _371  and  _373
REMARK  140  A    between atoms: _373  and  _374
REMARK  141  A    between atoms: _377  and  _379
REMARK  142  A    between atoms: _379  and  _380
REMARK  143  A    between atoms: _379  and  _382
REMARK  144  A    between atoms: _382  and  _383
REMARK  145  A    between atoms: _383  and  _384
REMARK  146  A    between atoms: _389  and  _391
REMARK  147  A    between atoms: _391  and  _392
REMARK  148  A    between atoms: _391  and  _394
REMARK  149  A    between atoms: _394  and  _395
REMARK  150  A    between atoms: _400  and  _402
REMARK  151  A    between atoms: _402  and  _403
REMARK  152  A    between atoms: _402  and  _405
REMARK  153  A    between atoms: _405  and  _406
REMARK  154  A    between atoms: _408  and  _410
REMARK  155  A    between atoms: _410  and  _411
REMARK  156  A    between atoms: _410  and  _413
REMARK  157  A    between atoms: _416  and  _418
REMARK  158  A    between atoms: _418  and  _419
REMARK  159  A    between atoms: _418  and  _421
REMARK  160  A    between atoms: _421  and  _422
REMARK  161  A    between atoms: _424  and  _426
REMARK  162  A    between atoms: _426  and  _427
REMARK  163  A    between atoms: _430  and  _432
REMARK  164  A    between atoms: _432  and  _433
REMARK  165  A    between atoms: _432  and  _435
REMARK  166  A    between atoms: _435  and  _436
REMARK  167  A    between atoms: _446  and  _448
REMARK  168  A    between atoms: _448  and  _449
REMARK  169  A    between atoms: _448  and  _451
REMARK  170  A    between atoms: _454  and  _456
REMARK  171  A    between atoms: _456  and  _457
REMARK  172  A    between atoms: _456  and  _459
REMARK  173  A    between atoms: _459  and  _460
REMARK  174  A    between atoms: _460  and  _461
REMARK  175  A    between atoms: _466  and  _468
REMARK  176  A    between atoms: _468  and  _469
REMARK  177  A    between atoms: _471  and  _473
REMARK  178  A    between atoms: _473  and  _474
REMARK  179  A    between atoms: _477  and  _479
REMARK  180  A    between atoms: _479  and  _480
REMARK  181  A    between atoms: _479  and  _482
REMARK  182  A    between atoms: _482  and  _483
REMARK  183  A    between atoms: _486  and  _488
REMARK  184  A    between atoms: _488  and  _489
REMARK  185  A    between atoms: _491  and  _493
REMARK  186  A    between atoms: _493  and  _494
REMARK  187  A    between atoms: _496  and  _498
REMARK  188  A    between atoms: _498  and  _499
REMARK  189  A    between atoms: _498  and  _501
REMARK  190  A    between atoms: _501  and  _502
REMARK  191  A    between atoms: _502  and  _503
REMARK  192  A    between atoms: _503  and  _504
REMARK  193  A    between atoms: _504  and  _505
REMARK  194  A    between atoms: _509  and  _511
REMARK  195  A    between atoms: _511  and  _512
REMARK  196  A    between atoms: _511  and  _514
REMARK  197  A    between atoms: _514  and  _515
REMARK  198  A    between atoms: _515  and  _516
REMARK  199  A    between atoms: _516  and  _517
REMARK  200  A    between atoms: _526  and  _528
REMARK  201  A    between atoms: _528  and  _529
REMARK  202  A    between atoms: _528  and  _531
REMARK  203  A    between atoms: _531  and  _532
REMARK  204  A    between atoms: _537  and  _538
REMARK  205  A    between atoms: _540  and  _542
REMARK  206  A    between atoms: _542  and  _543
REMARK  207  A    between atoms: _542  and  _545
REMARK  208  A    between atoms: _545  and  _546
REMARK  209  A    between atoms: _556  and  _558
REMARK  210  A    between atoms: _558  and  _559
REMARK  211  A    between atoms: _558  and  _561
REMARK  212  A    between atoms: _561  and  _562
REMARK  213  A    between atoms: _564  and  _566
REMARK  214  A    between atoms: _566  and  _567
REMARK  215  A    between atoms: _566  and  _569
REMARK  216  A    between atoms: _569  and  _570
REMARK  217  A    between atoms: _573  and  _575
REMARK  218  A    between atoms: _575  and  _576
REMARK  219  A    between atoms: _575  and  _578
REMARK  220  A    between atoms: _581  and  _583
REMARK  221  A    between atoms: _583  and  _584
REMARK  222  A    between atoms: _583  and  _586
REMARK  223  A    between atoms: _586  and  _587
REMARK  224  A    between atoms: _590  and  _592
REMARK  225  A    between atoms: _592  and  _593
REMARK  226  A    between atoms: _592  and  _595
REMARK  227  A    between atoms: _598  and  _599
REMARK  228  A    between atoms: _604  and  _606
REMARK  229  A    between atoms: _606  and  _607
REMARK  230  A    between atoms: _606  and  _609
REMARK  231  A    between atoms: _609  and  _610
REMARK  232  A    between atoms: _615  and  _616
REMARK  233  A    between atoms: _619  and  _620
REMARK  234  A    between atoms: _625  and  _627
REMARK  235  A    between atoms: _627  and  _628
REMARK  236  A    between atoms: _627  and  _630
REMARK  237  A    between atoms: _630  and  _631
REMARK  238  A    between atoms: _634  and  _636
REMARK  239  A    between atoms: _636  and  _637
REMARK  240  A    between atoms: _636  and  _639
REMARK  241  A    between atoms: _639  and  _640
REMARK  242  A    between atoms: _643  and  _645
REMARK  243  A    between atoms: _645  and  _646
REMARK  244  A    between atoms: _648  and  _650
REMARK  245  A    between atoms: _650  and  _651
REMARK  246  A    between atoms: _650  and  _653
REMARK  247  A    between atoms: _653  and  _654
REMARK  248  A    between atoms: _654  and  _655
REMARK  249  A    between atoms: _655  and  _656
REMARK  250  A    between atoms: _665  and  _667
REMARK  251  A    between atoms: _667  and  _668
REMARK  252  A    between atoms: _667  and  _670
REMARK  253  A    between atoms: _670  and  _671
REMARK                            x       y       z     vdW  Elec       q    Type
REMARK                         _______ _______ _______ _____ _____    ______ ____
ROOT
ATOM      1  O   HOH     1     -14.515   7.460   3.077  0.00  0.00    +0.000 OA
ENDROOT
TORSDOF 0
REMARK  Name = ../refined-set-2016/3slz/3slz_pocket.pdb
REMARK  253 active torsions:
REMARK  status: ('A' for Active; 'I' for Inactive)
REMARK    1  A    between atoms: _2  and  _3
REMARK    2  A    between atoms: _9  and  _10
REMARK    3  A    between atoms: _15  and  _17
REMARK    4  A    between atoms: _17  and  _18
REMARK    5  A    between atoms: _17  and  _20
REMARK    6  A    between atoms: _20  and  _21
REMARK    7  A    between atoms: _24  and  _26
REMARK    8  A    between atoms: _26  and  _27
REMARK    9  A    between atoms: _26  and  _29
REMARK   10  A    between atoms: _32  and  _34
REMARK   11  A    between atoms: _34  and  _35
REMARK   12  A    between atoms: _34  and  _37
REMARK   13  A    between atoms: _37  and  _38
REMARK   14  A    between atoms: _41  and  _43
REMARK   15  A    between atoms: _43  and  _44
REMARK   16  A    between atoms: _43  and  _46
REMARK   17  A    between atoms: _46  and  _47
REMARK   18  A    between atoms: _50  and  _52
REMARK   19  A    between atoms: _52  and  _53
REMARK   20  A    between atoms: _55  and  _57
REMARK   21  A    between atoms: _57  and  _58
REMARK   22  A    between atoms: _61  and  _63
REMARK   23  A    between atoms: _63  and  _64
REMARK   24  A    between atoms: _63  and  _66
REMARK   25  A    between atoms: _66  and  _67
REMARK   26  A    between atoms: _67  and  _68
REMARK   27  A    between atoms: _73  and  _75
REMARK   28  A    between atoms: _75  and  _76
REMARK   29  A    between atoms: _75  and  _78
REMARK   30  A    between atoms: _78  and  _79
REMARK   31  A    between atoms: _84  and  _86
REMARK   32  A    between atoms: _86  and  _87
REMARK   33  A    between atoms: _86  and  _89
REMARK   34  A    between atoms: _89  and  _90
REMARK   35  A    between atoms: _92  and  _94
REMARK   36  A    between atoms: _94  and  _95
REMARK   37  A    between atoms: _94  and  _97
REMARK   38  A    between atoms: _100  and  _102
REMARK   39  A    between atoms: _102  and  _103
REMARK   40  A    between atoms: _102  and  _105
REMARK   41  A    between atoms: _105  and  _106
REMARK   42  A    between atoms: _108  and  _110
REMARK   43  A    between atoms: _110  and  _111
REMARK   44  A    between atoms: _114  and  _116
REMARK   45  A    between atoms: _116  and  _117
REMARK   46  A    between atoms: _116  and  _119
REMARK   47  A    between atoms: _119  and  _120
REMARK   48  A    between atoms: _130  and  _132
REMARK   49  A    between atoms: _132  and  _133
REMARK   50  A    between atoms: _132  and  _135
REMARK   51  A    between atoms: _138  and  _140
REMARK   52  A    between atoms: _140  and  _141
REMARK   53  A    between atoms: _140  and  _143
REMARK   54  A    between atoms: _143  and  _144
REMARK   55  A    between atoms: _144  and  _145
REMARK   56  A    between atoms: _150  and  _152
REMARK   57  A    between atoms: _152  and  _153
REMARK   58  A    between atoms: _155  and  _157
REMARK   59  A    between atoms: _157  and  _158
REMARK   60  A    between atoms: _161  and  _163
REMARK   61  A    between atoms: _163  and  _164
REMARK   62  A    between atoms: _163  and  _166
REMARK   63  A    between atoms: _166  and  _167
REMARK   64  A    between atoms: _170  and  _172
REMARK   65  A    between atoms: _172  and  _173
REMARK   66  A    between atoms: _175  and  _177
REMARK   67  A    between atoms: _177  and  _178
REMARK   68  A    between atoms: _180  and  _182
REMARK   69  A    between atoms: _182  and  _183
REMARK   70  A    between atoms: _182  and  _185
REMARK   71  A    between atoms: _185  and  _186
REMARK   72  A    between atoms: _186  and  _187
REMARK   73  A    between atoms: _187  and  _188
REMARK   74  A    between atoms: _188  and  _189
REMARK   75  A    between atoms: _193  and  _195
REMARK   76  A    between atoms: _195  and  _196
REMARK   77  A    between atoms: _195  and  _198
REMARK   78  A    between atoms: _198  and  _199
REMARK   79  A    between atoms: _204  and  _205
REMARK   80  A    between atoms: _207  and  _209
REMARK   81  A    between atoms: _209  and  _210
REMARK   82  A    between atoms: _209  and  _212
REMARK   83  A    between atoms: _212  and  _213
REMARK   84  A    between atoms: _223  and  _225
REMARK   85  A    between atoms: _225  and  _226
REMARK   86  A    between atoms: _225  and  _228
REMARK   87  A    between atoms: _228  and  _229
REMARK   88  A    between atoms: _232  and  _234
REMARK   89  A    between atoms: _234  and  _235
REMARK   90  A    between atoms: _234  and  _237
REMARK   91  A    between atoms: _240  and  _242
REMARK   92  A    between atoms: _242  and  _243
REMARK   93  A    between atoms: _242  and  _245
REMARK   94  A    between atoms: _245  and  _246
REMARK   95  A    between atoms: _249  and  _251
REMARK   96  A    between atoms: _251  and  _252
REMARK   97  A    between atoms: _251  and  _254
REMARK   98  A    between atoms: _257  and  _258
REMARK   99  A    between atoms: _263  and  _265
REMARK  100  A    between atoms: _265  and  _266
REMARK  101  A    between atoms: _265  and  _268
REMARK  102  A    between atoms: _268  and  _269
REMARK  103  A    between atoms: _274  and  _275
REMARK  104  A    between atoms: _278  and  _279
REMARK  105  A    between atoms: _284  and  _286
REMARK  106  A    between atoms: _286  and  _287
REMARK  107  A    between atoms: _286  and  _289
REMARK  108  A    between atoms: _289  and  _290
REMARK  109  A    between atoms: _293  and  _295
REMARK  110  A    between atoms: _295  and  _296
REMARK  111  A    between atoms: _295  and  _298
REMARK  112  A    between atoms: _298  and  _299
REMARK  113  A    between atoms: _302  and  _304
REMARK  114  A    between atoms: _304  and  _305
REMARK  115  A    between atoms: _307  and  _309
REMARK  116  A    between atoms: _309  and  _310
REMARK  117  A    between atoms: _309  and  _312
REMARK  118  A    between atoms: _312  and  _313
REMARK  119  A    between atoms: _313  and  _314
REMARK  120  A    between atoms: _314  and  _315
REMARK  121  A    between atoms: _325  and  _326
REMARK  122  A    between atoms: _331  and  _333
REMARK  123  A    between atoms: _333  and  _334
REMARK  124  A    between atoms: _333  and  _336
REMARK  125  A    between atoms: _336  and  _337
REMARK  126  A    between atoms: _340  and  _342
REMARK  127  A    between atoms: _342  and  _343
REMARK  128  A    between atoms: _342  and  _345
REMARK  129  A    between atoms: _348  and  _350
REMARK  130  A    between atoms: _350  and  _351
REMARK  131  A    between atoms: _350  and  _353
REMARK  132  A    between atoms: _353  and  _354
REMARK  133  A    between atoms: _357  and  _359
REMARK  134  A    between atoms: _359  and  _360
REMARK  135  A    between atoms: _359  and  _362
REMARK  136  A    between atoms: _362  and  _363
REMARK  137  A    between atoms: _366  and  _368
REMARK  138  A    between atoms: _368  and  _369
REMARK  139  A    between atoms: _371  and  _373
REMARK  140  A    between atoms: _373  and  _374
REMARK  141  A    between atoms: _377  and  _379
REMARK  142  A    between atoms: _379  and  _380
REMARK  143  A    between atoms: _379  and  _382
REMARK  144  A    between atoms: _382  and  _383
REMARK  145  A    between atoms: _383  and  _384
REMARK  146  A    between atoms: _389  and  _391
REMARK  147  A    between atoms: _391  and  _392
REMARK  148  A    between atoms: _391  and  _394
REMARK  149  A    between atoms: _394  and  _395
REMARK  150  A    between atoms: _400  and  _402
REMARK  151  A    between atoms: _402  and  _403
REMARK  152  A    between atoms: _402  and  _405
REMARK  153  A    between atoms: _405  and  _406
REMARK  154  A    between atoms: _408  and  _410
REMARK  155  A    between atoms: _410  and  _411
REMARK  156  A    between atoms: _410  and  _413
REMARK  157  A    between atoms: _416  and  _418
REMARK  158  A    between atoms: _418  and  _419
REMARK  159  A    between atoms: _418  and  _421
REMARK  160  A    between atoms: _421  and  _422
REMARK  161  A    between atoms: _424  and  _426
REMARK  162  A    between atoms: _426  and  _427
REMARK  163  A    between atoms: _430  and  _432
REMARK  164  A    between atoms: _432  and  _433
REMARK  165  A    between atoms: _432  and  _435
REMARK  166  A    between atoms: _435  and  _436
REMARK  167  A    between atoms: _446  and  _448
REMARK  168  A    between atoms: _448  and  _449
REMARK  169  A    between atoms: _448  and  _451
REMARK  170  A    between atoms: _454  and  _456
REMARK  171  A    between atoms: _456  and  _457
REMARK  172  A    between atoms: _456  and  _459
REMARK  173  A    between atoms: _459  and  _460
REMARK  174  A    between atoms: _460  and  _461
REMARK  175  A    between atoms: _466  and  _468
REMARK  176  A    between atoms: _468  and  _469
REMARK  177  A    between atoms: _471  and  _473
REMARK  178  A    between atoms: _473  and  _474
REMARK  179  A    between atoms: _477  and  _479
REMARK  180  A    between atoms: _479  and  _480
REMARK  181  A    between atoms: _479  and  _482
REMARK  182  A    between atoms: _482  and  _483
REMARK  183  A    between atoms: _486  and  _488
REMARK  184  A    between atoms: _488  and  _489
REMARK  185  A    between atoms: _491  and  _493
REMARK  186  A    between atoms: _493  and  _494
REMARK  187  A    between atoms: _496  and  _498
REMARK  188  A    between atoms: _498  and  _499
REMARK  189  A    between atoms: _498  and  _501
REMARK  190  A    between atoms: _501  and  _502
REMARK  191  A    between atoms: _502  and  _503
REMARK  192  A    between atoms: _503  and  _504
REMARK  193  A    between atoms: _504  and  _505
REMARK  194  A    between atoms: _509  and  _511
REMARK  195  A    between atoms: _511  and  _512
REMARK  196  A    between atoms: _511  and  _514
REMARK  197  A    between atoms: _514  and  _515
REMARK  198  A    between atoms: _515  and  _516
REMARK  199  A    between atoms: _516  and  _517
REMARK  200  A    between atoms: _526  and  _528
REMARK  201  A    between atoms: _528  and  _529
REMARK  202  A    between atoms: _528  and  _531
REMARK  203  A    between atoms: _531  and  _532
REMARK  204  A    between atoms: _537  and  _538
REMARK  205  A    between atoms: _540  and  _542
REMARK  206  A    between atoms: _542  and  _543
REMARK  207  A    between atoms: _542  and  _545
REMARK  208  A    between atoms: _545  and  _546
REMARK  209  A    between atoms: _556  and  _558
REMARK  210  A    between atoms: _558  and  _559
REMARK  211  A    between atoms: _558  and  _561
REMARK  212  A    between atoms: _561  and  _562
REMARK  213  A    between atoms: _564  and  _566
REMARK  214  A    between atoms: _566  and  _567
REMARK  215  A    between atoms: _566  and  _569
REMARK  216  A    between atoms: _569  and  _570
REMARK  217  A    between atoms: _573  and  _575
REMARK  218  A    between atoms: _575  and  _576
REMARK  219  A    between atoms: _575  and  _578
REMARK  220  A    between atoms: _581  and  _583
REMARK  221  A    between atoms: _583  and  _584
REMARK  222  A    between atoms: _583  and  _586
REMARK  223  A    between atoms: _586  and  _587
REMARK  224  A    between atoms: _590  and  _592
REMARK  225  A    between atoms: _592  and  _593
REMARK  226  A    between atoms: _592  and  _595
REMARK  227  A    between atoms: _598  and  _599
REMARK  228  A    between atoms: _604  and  _606
REMARK  229  A    between atoms: _606  and  _607
REMARK  230  A    between atoms: _606  and  _609
REMARK  231  A    between atoms: _609  and  _610
REMARK  232  A    between atoms: _615  and  _616
REMARK  233  A    between atoms: _619  and  _620
REMARK  234  A    between atoms: _625  and  _627
REMARK  235  A    between atoms: _627  and  _628
REMARK  236  A    between atoms: _627  and  _630
REMARK  237  A    between atoms: _630  and  _631
REMARK  238  A    between atoms: _634  and  _636
REMARK  239  A    between atoms: _636  and  _637
REMARK  240  A    between atoms: _636  and  _639
REMARK  241  A    between atoms: _639  and  _640
REMARK  242  A    between atoms: _643  and  _645
REMARK  243  A    between atoms: _645  and  _646
REMARK  244  A    between atoms: _648  and  _650
REMARK  245  A    between atoms: _650  and  _651
REMARK  246  A    between atoms: _650  and  _653
REMARK  247  A    between atoms: _653  and  _654
REMARK  248  A    between atoms: _654  and  _655
REMARK  249  A    between atoms: _655  and  _656
REMARK  250  A    between atoms: _665  and  _667
REMARK  251  A    between atoms: _667  and  _668
REMARK  252  A    between atoms: _667  and  _670
REMARK  253  A    between atoms: _670  and  _671
REMARK                            x       y       z     vdW  Elec       q    Type
REMARK                         _______ _______ _______ _____ _____    ______ ____
ROOT
ATOM      1  O   HOH     1     -16.124   4.742  11.452  0.00  0.00    +0.000 OA
ENDROOT
TORSDOF 0
REMARK  Name = ../refined-set-2016/3slz/3slz_pocket.pdb
REMARK  253 active torsions:
REMARK  status: ('A' for Active; 'I' for Inactive)
REMARK    1  A    between atoms: _2  and  _3
REMARK    2  A    between atoms: _9  and  _10
REMARK    3  A    between atoms: _15  and  _17
REMARK    4  A    between atoms: _17  and  _18
REMARK    5  A    between atoms: _17  and  _20
REMARK    6  A    between atoms: _20  and  _21
REMARK    7  A    between atoms: _24  and  _26
REMARK    8  A    between atoms: _26  and  _27
REMARK    9  A    between atoms: _26  and  _29
REMARK   10  A    between atoms: _32  and  _34
REMARK   11  A    between atoms: _34  and  _35
REMARK   12  A    between atoms: _34  and  _37
REMARK   13  A    between atoms: _37  and  _38
REMARK   14  A    between atoms: _41  and  _43
REMARK   15  A    between atoms: _43  and  _44
REMARK   16  A    between atoms: _43  and  _46
REMARK   17  A    between atoms: _46  and  _47
REMARK   18  A    between atoms: _50  and  _52
REMARK   19  A    between atoms: _52  and  _53
REMARK   20  A    between atoms: _55  and  _57
REMARK   21  A    between atoms: _57  and  _58
REMARK   22  A    between atoms: _61  and  _63
REMARK   23  A    between atoms: _63  and  _64
REMARK   24  A    between atoms: _63  and  _66
REMARK   25  A    between atoms: _66  and  _67
REMARK   26  A    between atoms: _67  and  _68
REMARK   27  A    between atoms: _73  and  _75
REMARK   28  A    between atoms: _75  and  _76
REMARK   29  A    between atoms: _75  and  _78
REMARK   30  A    between atoms: _78  and  _79
REMARK   31  A    between atoms: _84  and  _86
REMARK   32  A    between atoms: _86  and  _87
REMARK   33  A    between atoms: _86  and  _89
REMARK   34  A    between atoms: _89  and  _90
REMARK   35  A    between atoms: _92  and  _94
REMARK   36  A    between atoms: _94  and  _95
REMARK   37  A    between atoms: _94  and  _97
REMARK   38  A    between atoms: _100  and  _102
REMARK   39  A    between atoms: _102  and  _103
REMARK   40  A    between atoms: _102  and  _105
REMARK   41  A    between atoms: _105  and  _106
REMARK   42  A    between atoms: _108  and  _110
REMARK   43  A    between atoms: _110  and  _111
REMARK   44  A    between atoms: _114  and  _116
REMARK   45  A    between atoms: _116  and  _117
REMARK   46  A    between atoms: _116  and  _119
REMARK   47  A    between atoms: _119  and  _120
REMARK   48  A    between atoms: _130  and  _132
REMARK   49  A    between atoms: _132  and  _133
REMARK   50  A    between atoms: _132  and  _135
REMARK   51  A    between atoms: _138  and  _140
REMARK   52  A    between atoms: _140  and  _141
REMARK   53  A    between atoms: _140  and  _143
REMARK   54  A    between atoms: _143  and  _144
REMARK   55  A    between atoms: _144  and  _145
REMARK   56  A    between atoms: _150  and  _152
REMARK   57  A    between atoms: _152  and  _153
REMARK   58  A    between atoms: _155  and  _157
REMARK   59  A    between atoms: _157  and  _158
REMARK   60  A    between atoms: _161  and  _163
REMARK   61  A    between atoms: _163  and  _164
REMARK   62  A    between atoms: _163  and  _166
REMARK   63  A    between atoms: _166  and  _167
REMARK   64  A    between atoms: _170  and  _172
REMARK   65  A    between atoms: _172  and  _173
REMARK   66  A    between atoms: _175  and  _177
REMARK   67  A    between atoms: _177  and  _178
REMARK   68  A    between atoms: _180  and  _182
REMARK   69  A    between atoms: _182  and  _183
REMARK   70  A    between atoms: _182  and  _185
REMARK   71  A    between atoms: _185  and  _186
REMARK   72  A    between atoms: _186  and  _187
REMARK   73  A    between atoms: _187  and  _188
REMARK   74  A    between atoms: _188  and  _189
REMARK   75  A    between atoms: _193  and  _195
REMARK   76  A    between atoms: _195  and  _196
REMARK   77  A    between atoms: _195  and  _198
REMARK   78  A    between atoms: _198  and  _199
REMARK   79  A    between atoms: _204  and  _205
REMARK   80  A    between atoms: _207  and  _209
REMARK   81  A    between atoms: _209  and  _210
REMARK   82  A    between atoms: _209  and  _212
REMARK   83  A    between atoms: _212  and  _213
REMARK   84  A    between atoms: _223  and  _225
REMARK   85  A    between atoms: _225  and  _226
REMARK   86  A    between atoms: _225  and  _228
REMARK   87  A    between atoms: _228  and  _229
REMARK   88  A    between atoms: _232  and  _234
REMARK   89  A    between atoms: _234  and  _235
REMARK   90  A    between atoms: _234  and  _237
REMARK   91  A    between atoms: _240  and  _242
REMARK   92  A    between atoms: _242  and  _243
REMARK   93  A    between atoms: _242  and  _245
REMARK   94  A    between atoms: _245  and  _246
REMARK   95  A    between atoms: _249  and  _251
REMARK   96  A    between atoms: _251  and  _252
REMARK   97  A    between atoms: _251  and  _254
REMARK   98  A    between atoms: _257  and  _258
REMARK   99  A    between atoms: _263  and  _265
REMARK  100  A    between atoms: _265  and  _266
REMARK  101  A    between atoms: _265  and  _268
REMARK  102  A    between atoms: _268  and  _269
REMARK  103  A    between atoms: _274  and  _275
REMARK  104  A    between atoms: _278  and  _279
REMARK  105  A    between atoms: _284  and  _286
REMARK  106  A    between atoms: _286  and  _287
REMARK  107  A    between atoms: _286  and  _289
REMARK  108  A    between atoms: _289  and  _290
REMARK  109  A    between atoms: _293  and  _295
REMARK  110  A    between atoms: _295  and  _296
REMARK  111  A    between atoms: _295  and  _298
REMARK  112  A    between atoms: _298  and  _299
REMARK  113  A    between atoms: _302  and  _304
REMARK  114  A    between atoms: _304  and  _305
REMARK  115  A    between atoms: _307  and  _309
REMARK  116  A    between atoms: _309  and  _310
REMARK  117  A    between atoms: _309  and  _312
REMARK  118  A    between atoms: _312  and  _313
REMARK  119  A    between atoms: _313  and  _314
REMARK  120  A    between atoms: _314  and  _315
REMARK  121  A    between atoms: _325  and  _326
REMARK  122  A    between atoms: _331  and  _333
REMARK  123  A    between atoms: _333  and  _334
REMARK  124  A    between atoms: _333  and  _336
REMARK  125  A    between atoms: _336  and  _337
REMARK  126  A    between atoms: _340  and  _342
REMARK  127  A    between atoms: _342  and  _343
REMARK  128  A    between atoms: _342  and  _345
REMARK  129  A    between atoms: _348  and  _350
REMARK  130  A    between atoms: _350  and  _351
REMARK  131  A    between atoms: _350  and  _353
REMARK  132  A    between atoms: _353  and  _354
REMARK  133  A    between atoms: _357  and  _359
REMARK  134  A    between atoms: _359  and  _360
REMARK  135  A    between atoms: _359  and  _362
REMARK  136  A    between atoms: _362  and  _363
REMARK  137  A    between atoms: _366  and  _368
REMARK  138  A    between atoms: _368  and  _369
REMARK  139  A    between atoms: _371  and  _373
REMARK  140  A    between atoms: _373  and  _374
REMARK  141  A    between atoms: _377  and  _379
REMARK  142  A    between atoms: _379  and  _380
REMARK  143  A    between atoms: _379  and  _382
REMARK  144  A    between atoms: _382  and  _383
REMARK  145  A    between atoms: _383  and  _384
REMARK  146  A    between atoms: _389  and  _391
REMARK  147  A    between atoms: _391  and  _392
REMARK  148  A    between atoms: _391  and  _394
REMARK  149  A    between atoms: _394  and  _395
REMARK  150  A    between atoms: _400  and  _402
REMARK  151  A    between atoms: _402  and  _403
REMARK  152  A    between atoms: _402  and  _405
REMARK  153  A    between atoms: _405  and  _406
REMARK  154  A    between atoms: _408  and  _410
REMARK  155  A    between atoms: _410  and  _411
REMARK  156  A    between atoms: _410  and  _413
REMARK  157  A    between atoms: _416  and  _418
REMARK  158  A    between atoms: _418  and  _419
REMARK  159  A    between atoms: _418  and  _421
REMARK  160  A    between atoms: _421  and  _422
REMARK  161  A    between atoms: _424  and  _426
REMARK  162  A    between atoms: _426  and  _427
REMARK  163  A    between atoms: _430  and  _432
REMARK  164  A    between atoms: _432  and  _433
REMARK  165  A    between atoms: _432  and  _435
REMARK  166  A    between atoms: _435  and  _436
REMARK  167  A    between atoms: _446  and  _448
REMARK  168  A    between atoms: _448  and  _449
REMARK  169  A    between atoms: _448  and  _451
REMARK  170  A    between atoms: _454  and  _456
REMARK  171  A    between atoms: _456  and  _457
REMARK  172  A    between atoms: _456  and  _459
REMARK  173  A    between atoms: _459  and  _460
REMARK  174  A    between atoms: _460  and  _461
REMARK  175  A    between atoms: _466  and  _468
REMARK  176  A    between atoms: _468  and  _469
REMARK  177  A    between atoms: _471  and  _473
REMARK  178  A    between atoms: _473  and  _474
REMARK  179  A    between atoms: _477  and  _479
REMARK  180  A    between atoms: _479  and  _480
REMARK  181  A    between atoms: _479  and  _482
REMARK  182  A    between atoms: _482  and  _483
REMARK  183  A    between atoms: _486  and  _488
REMARK  184  A    between atoms: _488  and  _489
REMARK  185  A    between atoms: _491  and  _493
REMARK  186  A    between atoms: _493  and  _494
REMARK  187  A    between atoms: _496  and  _498
REMARK  188  A    between atoms: _498  and  _499
REMARK  189  A    between atoms: _498  and  _501
REMARK  190  A    between atoms: _501  and  _502
REMARK  191  A    between atoms: _502  and  _503
REMARK  192  A    between atoms: _503  and  _504
REMARK  193  A    between atoms: _504  and  _505
REMARK  194  A    between atoms: _509  and  _511
REMARK  195  A    between atoms: _511  and  _512
REMARK  196  A    between atoms: _511  and  _514
REMARK  197  A    between atoms: _514  and  _515
REMARK  198  A    between atoms: _515  and  _516
REMARK  199  A    between atoms: _516  and  _517
REMARK  200  A    between atoms: _526  and  _528
REMARK  201  A    between atoms: _528  and  _529
REMARK  202  A    between atoms: _528  and  _531
REMARK  203  A    between atoms: _531  and  _532
REMARK  204  A    between atoms: _537  and  _538
REMARK  205  A    between atoms: _540  and  _542
REMARK  206  A    between atoms: _542  and  _543
REMARK  207  A    between atoms: _542  and  _545
REMARK  208  A    between atoms: _545  and  _546
REMARK  209  A    between atoms: _556  and  _558
REMARK  210  A    between atoms: _558  and  _559
REMARK  211  A    between atoms: _558  and  _561
REMARK  212  A    between atoms: _561  and  _562
REMARK  213  A    between atoms: _564  and  _566
REMARK  214  A    between atoms: _566  and  _567
REMARK  215  A    between atoms: _566  and  _569
REMARK  216  A    between atoms: _569  and  _570
REMARK  217  A    between atoms: _573  and  _575
REMARK  218  A    between atoms: _575  and  _576
REMARK  219  A    between atoms: _575  and  _578
REMARK  220  A    between atoms: _581  and  _583
REMARK  221  A    between atoms: _583  and  _584
REMARK  222  A    between atoms: _583  and  _586
REMARK  223  A    between atoms: _586  and  _587
REMARK  224  A    between atoms: _590  and  _592
REMARK  225  A    between atoms: _592  and  _593
REMARK  226  A    between atoms: _592  and  _595
REMARK  227  A    between atoms: _598  and  _599
REMARK  228  A    between atoms: _604  and  _606
REMARK  229  A    between atoms: _606  and  _607
REMARK  230  A    between atoms: _606  and  _609
REMARK  231  A    between atoms: _609  and  _610
REMARK  232  A    between atoms: _615  and  _616
REMARK  233  A    between atoms: _619  and  _620
REMARK  234  A    between atoms: _625  and  _627
REMARK  235  A    between atoms: _627  and  _628
REMARK  236  A    between atoms: _627  and  _630
REMARK  237  A    between atoms: _630  and  _631
REMARK  238  A    between atoms: _634  and  _636
REMARK  239  A    between atoms: _636  and  _637
REMARK  240  A    between atoms: _636  and  _639
REMARK  241  A    between atoms: _639  and  _640
REMARK  242  A    between atoms: _643  and  _645
REMARK  243  A    between atoms: _645  and  _646
REMARK  244  A    between atoms: _648  and  _650
REMARK  245  A    between atoms: _650  and  _651
REMARK  246  A    between atoms: _650  and  _653
REMARK  247  A    between atoms: _653  and  _654
REMARK  248  A    between atoms: _654  and  _655
REMARK  249  A    between atoms: _655  and  _656
REMARK  250  A    between atoms: _665  and  _667
REMARK  251  A    between atoms: _667  and  _668
REMARK  252  A    between atoms: _667  and  _670
REMARK  253  A    between atoms: _670  and  _671
REMARK                            x       y       z     vdW  Elec       q    Type
REMARK                         _______ _______ _______ _____ _____    ______ ____
ROOT
ATOM      1  O   HOH     1      -6.272  14.067  -7.069  0.00  0.00    +0.000 OA
ENDROOT
TORSDOF 0
REMARK  Name = ../refined-set-2016/3slz/3slz_pocket.pdb
REMARK  253 active torsions:
REMARK  status: ('A' for Active; 'I' for Inactive)
REMARK    1  A    between atoms: _2  and  _3
REMARK    2  A    between atoms: _9  and  _10
REMARK    3  A    between atoms: _15  and  _17
REMARK    4  A    between atoms: _17  and  _18
REMARK    5  A    between atoms: _17  and  _20
REMARK    6  A    between atoms: _20  and  _21
REMARK    7  A    between atoms: _24  and  _26
REMARK    8  A    between atoms: _26  and  _27
REMARK    9  A    between atoms: _26  and  _29
REMARK   10  A    between atoms: _32  and  _34
REMARK   11  A    between atoms: _34  and  _35
REMARK   12  A    between atoms: _34  and  _37
REMARK   13  A    between atoms: _37  and  _38
REMARK   14  A    between atoms: _41  and  _43
REMARK   15  A    between atoms: _43  and  _44
REMARK   16  A    between atoms: _43  and  _46
REMARK   17  A    between atoms: _46  and  _47
REMARK   18  A    between atoms: _50  and  _52
REMARK   19  A    between atoms: _52  and  _53
REMARK   20  A    between atoms: _55  and  _57
REMARK   21  A    between atoms: _57  and  _58
REMARK   22  A    between atoms: _61  and  _63
REMARK   23  A    between atoms: _63  and  _64
REMARK   24  A    between atoms: _63  and  _66
REMARK   25  A    between atoms: _66  and  _67
REMARK   26  A    between atoms: _67  and  _68
REMARK   27  A    between atoms: _73  and  _75
REMARK   28  A    between atoms: _75  and  _76
REMARK   29  A    between atoms: _75  and  _78
REMARK   30  A    between atoms: _78  and  _79
REMARK   31  A    between atoms: _84  and  _86
REMARK   32  A    between atoms: _86  and  _87
REMARK   33  A    between atoms: _86  and  _89
REMARK   34  A    between atoms: _89  and  _90
REMARK   35  A    between atoms: _92  and  _94
REMARK   36  A    between atoms: _94  and  _95
REMARK   37  A    between atoms: _94  and  _97
REMARK   38  A    between atoms: _100  and  _102
REMARK   39  A    between atoms: _102  and  _103
REMARK   40  A    between atoms: _102  and  _105
REMARK   41  A    between atoms: _105  and  _106
REMARK   42  A    between atoms: _108  and  _110
REMARK   43  A    between atoms: _110  and  _111
REMARK   44  A    between atoms: _114  and  _116
REMARK   45  A    between atoms: _116  and  _117
REMARK   46  A    between atoms: _116  and  _119
REMARK   47  A    between atoms: _119  and  _120
REMARK   48  A    between atoms: _130  and  _132
REMARK   49  A    between atoms: _132  and  _133
REMARK   50  A    between atoms: _132  and  _135
REMARK   51  A    between atoms: _138  and  _140
REMARK   52  A    between atoms: _140  and  _141
REMARK   53  A    between atoms: _140  and  _143
REMARK   54  A    between atoms: _143  and  _144
REMARK   55  A    between atoms: _144  and  _145
REMARK   56  A    between atoms: _150  and  _152
REMARK   57  A    between atoms: _152  and  _153
REMARK   58  A    between atoms: _155  and  _157
REMARK   59  A    between atoms: _157  and  _158
REMARK   60  A    between atoms: _161  and  _163
REMARK   61  A    between atoms: _163  and  _164
REMARK   62  A    between atoms: _163  and  _166
REMARK   63  A    between atoms: _166  and  _167
REMARK   64  A    between atoms: _170  and  _172
REMARK   65  A    between atoms: _172  and  _173
REMARK   66  A    between atoms: _175  and  _177
REMARK   67  A    between atoms: _177  and  _178
REMARK   68  A    between atoms: _180  and  _182
REMARK   69  A    between atoms: _182  and  _183
REMARK   70  A    between atoms: _182  and  _185
REMARK   71  A    between atoms: _185  and  _186
REMARK   72  A    between atoms: _186  and  _187
REMARK   73  A    between atoms: _187  and  _188
REMARK   74  A    between atoms: _188  and  _189
REMARK   75  A    between atoms: _193  and  _195
REMARK   76  A    between atoms: _195  and  _196
REMARK   77  A    between atoms: _195  and  _198
REMARK   78  A    between atoms: _198  and  _199
REMARK   79  A    between atoms: _204  and  _205
REMARK   80  A    between atoms: _207  and  _209
REMARK   81  A    between atoms: _209  and  _210
REMARK   82  A    between atoms: _209  and  _212
REMARK   83  A    between atoms: _212  and  _213
REMARK   84  A    between atoms: _223  and  _225
REMARK   85  A    between atoms: _225  and  _226
REMARK   86  A    between atoms: _225  and  _228
REMARK   87  A    between atoms: _228  and  _229
REMARK   88  A    between atoms: _232  and  _234
REMARK   89  A    between atoms: _234  and  _235
REMARK   90  A    between atoms: _234  and  _237
REMARK   91  A    between atoms: _240  and  _242
REMARK   92  A    between atoms: _242  and  _243
REMARK   93  A    between atoms: _242  and  _245
REMARK   94  A    between atoms: _245  and  _246
REMARK   95  A    between atoms: _249  and  _251
REMARK   96  A    between atoms: _251  and  _252
REMARK   97  A    between atoms: _251  and  _254
REMARK   98  A    between atoms: _257  and  _258
REMARK   99  A    between atoms: _263  and  _265
REMARK  100  A    between atoms: _265  and  _266
REMARK  101  A    between atoms: _265  and  _268
REMARK  102  A    between atoms: _268  and  _269
REMARK  103  A    between atoms: _274  and  _275
REMARK  104  A    between atoms: _278  and  _279
REMARK  105  A    between atoms: _284  and  _286
REMARK  106  A    between atoms: _286  and  _287
REMARK  107  A    between atoms: _286  and  _289
REMARK  108  A    between atoms: _289  and  _290
REMARK  109  A    between atoms: _293  and  _295
REMARK  110  A    between atoms: _295  and  _296
REMARK  111  A    between atoms: _295  and  _298
REMARK  112  A    between atoms: _298  and  _299
REMARK  113  A    between atoms: _302  and  _304
REMARK  114  A    between atoms: _304  and  _305
REMARK  115  A    between atoms: _307  and  _309
REMARK  116  A    between atoms: _309  and  _310
REMARK  117  A    between atoms: _309  and  _312
REMARK  118  A    between atoms: _312  and  _313
REMARK  119  A    between atoms: _313  and  _314
REMARK  120  A    between atoms: _314  and  _315
REMARK  121  A    between atoms: _325  and  _326
REMARK  122  A    between atoms: _331  and  _333
REMARK  123  A    between atoms: _333  and  _334
REMARK  124  A    between atoms: _333  and  _336
REMARK  125  A    between atoms: _336  and  _337
REMARK  126  A    between atoms: _340  and  _342
REMARK  127  A    between atoms: _342  and  _343
REMARK  128  A    between atoms: _342  and  _345
REMARK  129  A    between atoms: _348  and  _350
REMARK  130  A    between atoms: _350  and  _351
REMARK  131  A    between atoms: _350  and  _353
REMARK  132  A    between atoms: _353  and  _354
REMARK  133  A    between atoms: _357  and  _359
REMARK  134  A    between atoms: _359  and  _360
REMARK  135  A    between atoms: _359  and  _362
REMARK  136  A    between atoms: _362  and  _363
REMARK  137  A    between atoms: _366  and  _368
REMARK  138  A    between atoms: _368  and  _369
REMARK  139  A    between atoms: _371  and  _373
REMARK  140  A    between atoms: _373  and  _374
REMARK  141  A    between atoms: _377  and  _379
REMARK  142  A    between atoms: _379  and  _380
REMARK  143  A    between atoms: _379  and  _382
REMARK  144  A    between atoms: _382  and  _383
REMARK  145  A    between atoms: _383  and  _384
REMARK  146  A    between atoms: _389  and  _391
REMARK  147  A    between atoms: _391  and  _392
REMARK  148  A    between atoms: _391  and  _394
REMARK  149  A    between atoms: _394  and  _395
REMARK  150  A    between atoms: _400  and  _402
REMARK  151  A    between atoms: _402  and  _403
REMARK  152  A    between atoms: _402  and  _405
REMARK  153  A    between atoms: _405  and  _406
REMARK  154  A    between atoms: _408  and  _410
REMARK  155  A    between atoms: _410  and  _411
REMARK  156  A    between atoms: _410  and  _413
REMARK  157  A    between atoms: _416  and  _418
REMARK  158  A    between atoms: _418  and  _419
REMARK  159  A    between atoms: _418  and  _421
REMARK  160  A    between atoms: _421  and  _422
REMARK  161  A    between atoms: _424  and  _426
REMARK  162  A    between atoms: _426  and  _427
REMARK  163  A    between atoms: _430  and  _432
REMARK  164  A    between atoms: _432  and  _433
REMARK  165  A    between atoms: _432  and  _435
REMARK  166  A    between atoms: _435  and  _436
REMARK  167  A    between atoms: _446  and  _448
REMARK  168  A    between atoms: _448  and  _449
REMARK  169  A    between atoms: _448  and  _451
REMARK  170  A    between atoms: _454  and  _456
REMARK  171  A    between atoms: _456  and  _457
REMARK  172  A    between atoms: _456  and  _459
REMARK  173  A    between atoms: _459  and  _460
REMARK  174  A    between atoms: _460  and  _461
REMARK  175  A    between atoms: _466  and  _468
REMARK  176  A    between atoms: _468  and  _469
REMARK  177  A    between atoms: _471  and  _473
REMARK  178  A    between atoms: _473  and  _474
REMARK  179  A    between atoms: _477  and  _479
REMARK  180  A    between atoms: _479  and  _480
REMARK  181  A    between atoms: _479  and  _482
REMARK  182  A    between atoms: _482  and  _483
REMARK  183  A    between atoms: _486  and  _488
REMARK  184  A    between atoms: _488  and  _489
REMARK  185  A    between atoms: _491  and  _493
REMARK  186  A    between atoms: _493  and  _494
REMARK  187  A    between atoms: _496  and  _498
REMARK  188  A    between atoms: _498  and  _499
REMARK  189  A    between atoms: _498  and  _501
REMARK  190  A    between atoms: _501  and  _502
REMARK  191  A    between atoms: _502  and  _503
REMARK  192  A    between atoms: _503  and  _504
REMARK  193  A    between atoms: _504  and  _505
REMARK  194  A    between atoms: _509  and  _511
REMARK  195  A    between atoms: _511  and  _512
REMARK  196  A    between atoms: _511  and  _514
REMARK  197  A    between atoms: _514  and  _515
REMARK  198  A    between atoms: _515  and  _516
REMARK  199  A    between atoms: _516  and  _517
REMARK  200  A    between atoms: _526  and  _528
REMARK  201  A    between atoms: _528  and  _529
REMARK  202  A    between atoms: _528  and  _531
REMARK  203  A    between atoms: _531  and  _532
REMARK  204  A    between atoms: _537  and  _538
REMARK  205  A    between atoms: _540  and  _542
REMARK  206  A    between atoms: _542  and  _543
REMARK  207  A    between atoms: _542  and  _545
REMARK  208  A    between atoms: _545  and  _546
REMARK  209  A    between atoms: _556  and  _558
REMARK  210  A    between atoms: _558  and  _559
REMARK  211  A    between atoms: _558  and  _561
REMARK  212  A    between atoms: _561  and  _562
REMARK  213  A    between atoms: _564  and  _566
REMARK  214  A    between atoms: _566  and  _567
REMARK  215  A    between atoms: _566  and  _569
REMARK  216  A    between atoms: _569  and  _570
REMARK  217  A    between atoms: _573  and  _575
REMARK  218  A    between atoms: _575  and  _576
REMARK  219  A    between atoms: _575  and  _578
REMARK  220  A    between atoms: _581  and  _583
REMARK  221  A    between atoms: _583  and  _584
REMARK  222  A    between atoms: _583  and  _586
REMARK  223  A    between atoms: _586  and  _587
REMARK  224  A    between atoms: _590  and  _592
REMARK  225  A    between atoms: _592  and  _593
REMARK  226  A    between atoms: _592  and  _595
REMARK  227  A    between atoms: _598  and  _599
REMARK  228  A    between atoms: _604  and  _606
REMARK  229  A    between atoms: _606  and  _607
REMARK  230  A    between atoms: _606  and  _609
REMARK  231  A    between atoms: _609  and  _610
REMARK  232  A    between atoms: _615  and  _616
REMARK  233  A    between atoms: _619  and  _620
REMARK  234  A    between atoms: _625  and  _627
REMARK  235  A    between atoms: _627  and  _628
REMARK  236  A    between atoms: _627  and  _630
REMARK  237  A    between atoms: _630  and  _631
REMARK  238  A    between atoms: _634  and  _636
REMARK  239  A    between atoms: _636  and  _637
REMARK  240  A    between atoms: _636  and  _639
REMARK  241  A    between atoms: _639  and  _640
REMARK  242  A    between atoms: _643  and  _645
REMARK  243  A    between atoms: _645  and  _646
REMARK  244  A    between atoms: _648  and  _650
REMARK  245  A    between atoms: _650  and  _651
REMARK  246  A    between atoms: _650  and  _653
REMARK  247  A    between atoms: _653  and  _654
REMARK  248  A    between atoms: _654  and  _655
REMARK  249  A    between atoms: _655  and  _656
REMARK  250  A    between atoms: _665  and  _667
REMARK  251  A    between atoms: _667  and  _668
REMARK  252  A    between atoms: _667  and  _670
REMARK  253  A    between atoms: _670  and  _671
REMARK                            x       y       z     vdW  Elec       q    Type
REMARK                         _______ _______ _______ _____ _____    ______ ____
ROOT
ATOM      1  O   HOH     1      -9.760  13.068  -3.108  0.00  0.00    +0.000 OA
ENDROOT
TORSDOF 0
REMARK  Name = ../refined-set-2016/3slz/3slz_pocket.pdb
REMARK  253 active torsions:
REMARK  status: ('A' for Active; 'I' for Inactive)
REMARK    1  A    between atoms: _2  and  _3
REMARK    2  A    between atoms: _9  and  _10
REMARK    3  A    between atoms: _15  and  _17
REMARK    4  A    between atoms: _17  and  _18
REMARK    5  A    between atoms: _17  and  _20
REMARK    6  A    between atoms: _20  and  _21
REMARK    7  A    between atoms: _24  and  _26
REMARK    8  A    between atoms: _26  and  _27
REMARK    9  A    between atoms: _26  and  _29
REMARK   10  A    between atoms: _32  and  _34
REMARK   11  A    between atoms: _34  and  _35
REMARK   12  A    between atoms: _34  and  _37
REMARK   13  A    between atoms: _37  and  _38
REMARK   14  A    between atoms: _41  and  _43
REMARK   15  A    between atoms: _43  and  _44
REMARK   16  A    between atoms: _43  and  _46
REMARK   17  A    between atoms: _46  and  _47
REMARK   18  A    between atoms: _50  and  _52
REMARK   19  A    between atoms: _52  and  _53
REMARK   20  A    between atoms: _55  and  _57
REMARK   21  A    between atoms: _57  and  _58
REMARK   22  A    between atoms: _61  and  _63
REMARK   23  A    between atoms: _63  and  _64
REMARK   24  A    between atoms: _63  and  _66
REMARK   25  A    between atoms: _66  and  _67
REMARK   26  A    between atoms: _67  and  _68
REMARK   27  A    between atoms: _73  and  _75
REMARK   28  A    between atoms: _75  and  _76
REMARK   29  A    between atoms: _75  and  _78
REMARK   30  A    between atoms: _78  and  _79
REMARK   31  A    between atoms: _84  and  _86
REMARK   32  A    between atoms: _86  and  _87
REMARK   33  A    between atoms: _86  and  _89
REMARK   34  A    between atoms: _89  and  _90
REMARK   35  A    between atoms: _92  and  _94
REMARK   36  A    between atoms: _94  and  _95
REMARK   37  A    between atoms: _94  and  _97
REMARK   38  A    between atoms: _100  and  _102
REMARK   39  A    between atoms: _102  and  _103
REMARK   40  A    between atoms: _102  and  _105
REMARK   41  A    between atoms: _105  and  _106
REMARK   42  A    between atoms: _108  and  _110
REMARK   43  A    between atoms: _110  and  _111
REMARK   44  A    between atoms: _114  and  _116
REMARK   45  A    between atoms: _116  and  _117
REMARK   46  A    between atoms: _116  and  _119
REMARK   47  A    between atoms: _119  and  _120
REMARK   48  A    between atoms: _130  and  _132
REMARK   49  A    between atoms: _132  and  _133
REMARK   50  A    between atoms: _132  and  _135
REMARK   51  A    between atoms: _138  and  _140
REMARK   52  A    between atoms: _140  and  _141
REMARK   53  A    between atoms: _140  and  _143
REMARK   54  A    between atoms: _143  and  _144
REMARK   55  A    between atoms: _144  and  _145
REMARK   56  A    between atoms: _150  and  _152
REMARK   57  A    between atoms: _152  and  _153
REMARK   58  A    between atoms: _155  and  _157
REMARK   59  A    between atoms: _157  and  _158
REMARK   60  A    between atoms: _161  and  _163
REMARK   61  A    between atoms: _163  and  _164
REMARK   62  A    between atoms: _163  and  _166
REMARK   63  A    between atoms: _166  and  _167
REMARK   64  A    between atoms: _170  and  _172
REMARK   65  A    between atoms: _172  and  _173
REMARK   66  A    between atoms: _175  and  _177
REMARK   67  A    between atoms: _177  and  _178
REMARK   68  A    between atoms: _180  and  _182
REMARK   69  A    between atoms: _182  and  _183
REMARK   70  A    between atoms: _182  and  _185
REMARK   71  A    between atoms: _185  and  _186
REMARK   72  A    between atoms: _186  and  _187
REMARK   73  A    between atoms: _187  and  _188
REMARK   74  A    between atoms: _188  and  _189
REMARK   75  A    between atoms: _193  and  _195
REMARK   76  A    between atoms: _195  and  _196
REMARK   77  A    between atoms: _195  and  _198
REMARK   78  A    between atoms: _198  and  _199
REMARK   79  A    between atoms: _204  and  _205
REMARK   80  A    between atoms: _207  and  _209
REMARK   81  A    between atoms: _209  and  _210
REMARK   82  A    between atoms: _209  and  _212
REMARK   83  A    between atoms: _212  and  _213
REMARK   84  A    between atoms: _223  and  _225
REMARK   85  A    between atoms: _225  and  _226
REMARK   86  A    between atoms: _225  and  _228
REMARK   87  A    between atoms: _228  and  _229
REMARK   88  A    between atoms: _232  and  _234
REMARK   89  A    between atoms: _234  and  _235
REMARK   90  A    between atoms: _234  and  _237
REMARK   91  A    between atoms: _240  and  _242
REMARK   92  A    between atoms: _242  and  _243
REMARK   93  A    between atoms: _242  and  _245
REMARK   94  A    between atoms: _245  and  _246
REMARK   95  A    between atoms: _249  and  _251
REMARK   96  A    between atoms: _251  and  _252
REMARK   97  A    between atoms: _251  and  _254
REMARK   98  A    between atoms: _257  and  _258
REMARK   99  A    between atoms: _263  and  _265
REMARK  100  A    between atoms: _265  and  _266
REMARK  101  A    between atoms: _265  and  _268
REMARK  102  A    between atoms: _268  and  _269
REMARK  103  A    between atoms: _274  and  _275
REMARK  104  A    between atoms: _278  and  _279
REMARK  105  A    between atoms: _284  and  _286
REMARK  106  A    between atoms: _286  and  _287
REMARK  107  A    between atoms: _286  and  _289
REMARK  108  A    between atoms: _289  and  _290
REMARK  109  A    between atoms: _293  and  _295
REMARK  110  A    between atoms: _295  and  _296
REMARK  111  A    between atoms: _295  and  _298
REMARK  112  A    between atoms: _298  and  _299
REMARK  113  A    between atoms: _302  and  _304
REMARK  114  A    between atoms: _304  and  _305
REMARK  115  A    between atoms: _307  and  _309
REMARK  116  A    between atoms: _309  and  _310
REMARK  117  A    between atoms: _309  and  _312
REMARK  118  A    between atoms: _312  and  _313
REMARK  119  A    between atoms: _313  and  _314
REMARK  120  A    between atoms: _314  and  _315
REMARK  121  A    between atoms: _325  and  _326
REMARK  122  A    between atoms: _331  and  _333
REMARK  123  A    between atoms: _333  and  _334
REMARK  124  A    between atoms: _333  and  _336
REMARK  125  A    between atoms: _336  and  _337
REMARK  126  A    between atoms: _340  and  _342
REMARK  127  A    between atoms: _342  and  _343
REMARK  128  A    between atoms: _342  and  _345
REMARK  129  A    between atoms: _348  and  _350
REMARK  130  A    between atoms: _350  and  _351
REMARK  131  A    between atoms: _350  and  _353
REMARK  132  A    between atoms: _353  and  _354
REMARK  133  A    between atoms: _357  and  _359
REMARK  134  A    between atoms: _359  and  _360
REMARK  135  A    between atoms: _359  and  _362
REMARK  136  A    between atoms: _362  and  _363
REMARK  137  A    between atoms: _366  and  _368
REMARK  138  A    between atoms: _368  and  _369
REMARK  139  A    between atoms: _371  and  _373
REMARK  140  A    between atoms: _373  and  _374
REMARK  141  A    between atoms: _377  and  _379
REMARK  142  A    between atoms: _379  and  _380
REMARK  143  A    between atoms: _379  and  _382
REMARK  144  A    between atoms: _382  and  _383
REMARK  145  A    between atoms: _383  and  _384
REMARK  146  A    between atoms: _389  and  _391
REMARK  147  A    between atoms: _391  and  _392
REMARK  148  A    between atoms: _391  and  _394
REMARK  149  A    between atoms: _394  and  _395
REMARK  150  A    between atoms: _400  and  _402
REMARK  151  A    between atoms: _402  and  _403
REMARK  152  A    between atoms: _402  and  _405
REMARK  153  A    between atoms: _405  and  _406
REMARK  154  A    between atoms: _408  and  _410
REMARK  155  A    between atoms: _410  and  _411
REMARK  156  A    between atoms: _410  and  _413
REMARK  157  A    between atoms: _416  and  _418
REMARK  158  A    between atoms: _418  and  _419
REMARK  159  A    between atoms: _418  and  _421
REMARK  160  A    between atoms: _421  and  _422
REMARK  161  A    between atoms: _424  and  _426
REMARK  162  A    between atoms: _426  and  _427
REMARK  163  A    between atoms: _430  and  _432
REMARK  164  A    between atoms: _432  and  _433
REMARK  165  A    between atoms: _432  and  _435
REMARK  166  A    between atoms: _435  and  _436
REMARK  167  A    between atoms: _446  and  _448
REMARK  168  A    between atoms: _448  and  _449
REMARK  169  A    between atoms: _448  and  _451
REMARK  170  A    between atoms: _454  and  _456
REMARK  171  A    between atoms: _456  and  _457
REMARK  172  A    between atoms: _456  and  _459
REMARK  173  A    between atoms: _459  and  _460
REMARK  174  A    between atoms: _460  and  _461
REMARK  175  A    between atoms: _466  and  _468
REMARK  176  A    between atoms: _468  and  _469
REMARK  177  A    between atoms: _471  and  _473
REMARK  178  A    between atoms: _473  and  _474
REMARK  179  A    between atoms: _477  and  _479
REMARK  180  A    between atoms: _479  and  _480
REMARK  181  A    between atoms: _479  and  _482
REMARK  182  A    between atoms: _482  and  _483
REMARK  183  A    between atoms: _486  and  _488
REMARK  184  A    between atoms: _488  and  _489
REMARK  185  A    between atoms: _491  and  _493
REMARK  186  A    between atoms: _493  and  _494
REMARK  187  A    between atoms: _496  and  _498
REMARK  188  A    between atoms: _498  and  _499
REMARK  189  A    between atoms: _498  and  _501
REMARK  190  A    between atoms: _501  and  _502
REMARK  191  A    between atoms: _502  and  _503
REMARK  192  A    between atoms: _503  and  _504
REMARK  193  A    between atoms: _504  and  _505
REMARK  194  A    between atoms: _509  and  _511
REMARK  195  A    between atoms: _511  and  _512
REMARK  196  A    between atoms: _511  and  _514
REMARK  197  A    between atoms: _514  and  _515
REMARK  198  A    between atoms: _515  and  _516
REMARK  199  A    between atoms: _516  and  _517
REMARK  200  A    between atoms: _526  and  _528
REMARK  201  A    between atoms: _528  and  _529
REMARK  202  A    between atoms: _528  and  _531
REMARK  203  A    between atoms: _531  and  _532
REMARK  204  A    between atoms: _537  and  _538
REMARK  205  A    between atoms: _540  and  _542
REMARK  206  A    between atoms: _542  and  _543
REMARK  207  A    between atoms: _542  and  _545
REMARK  208  A    between atoms: _545  and  _546
REMARK  209  A    between atoms: _556  and  _558
REMARK  210  A    between atoms: _558  and  _559
REMARK  211  A    between atoms: _558  and  _561
REMARK  212  A    between atoms: _561  and  _562
REMARK  213  A    between atoms: _564  and  _566
REMARK  214  A    between atoms: _566  and  _567
REMARK  215  A    between atoms: _566  and  _569
REMARK  216  A    between atoms: _569  and  _570
REMARK  217  A    between atoms: _573  and  _575
REMARK  218  A    between atoms: _575  and  _576
REMARK  219  A    between atoms: _575  and  _578
REMARK  220  A    between atoms: _581  and  _583
REMARK  221  A    between atoms: _583  and  _584
REMARK  222  A    between atoms: _583  and  _586
REMARK  223  A    between atoms: _586  and  _587
REMARK  224  A    between atoms: _590  and  _592
REMARK  225  A    between atoms: _592  and  _593
REMARK  226  A    between atoms: _592  and  _595
REMARK  227  A    between atoms: _598  and  _599
REMARK  228  A    between atoms: _604  and  _606
REMARK  229  A    between atoms: _606  and  _607
REMARK  230  A    between atoms: _606  and  _609
REMARK  231  A    between atoms: _609  and  _610
REMARK  232  A    between atoms: _615  and  _616
REMARK  233  A    between atoms: _619  and  _620
REMARK  234  A    between atoms: _625  and  _627
REMARK  235  A    between atoms: _627  and  _628
REMARK  236  A    between atoms: _627  and  _630
REMARK  237  A    between atoms: _630  and  _631
REMARK  238  A    between atoms: _634  and  _636
REMARK  239  A    between atoms: _636  and  _637
REMARK  240  A    between atoms: _636  and  _639
REMARK  241  A    between atoms: _639  and  _640
REMARK  242  A    between atoms: _643  and  _645
REMARK  243  A    between atoms: _645  and  _646
REMARK  244  A    between atoms: _648  and  _650
REMARK  245  A    between atoms: _650  and  _651
REMARK  246  A    between atoms: _650  and  _653
REMARK  247  A    between atoms: _653  and  _654
REMARK  248  A    between atoms: _654  and  _655
REMARK  249  A    between atoms: _655  and  _656
REMARK  250  A    between atoms: _665  and  _667
REMARK  251  A    between atoms: _667  and  _668
REMARK  252  A    between atoms: _667  and  _670
REMARK  253  A    between atoms: _670  and  _671
REMARK                            x       y       z     vdW  Elec       q    Type
REMARK                         _______ _______ _______ _____ _____    ______ ____
ROOT
ATOM      1  O   HOH     1     -10.430  16.115  -4.637  0.00  0.00    +0.000 OA
ENDROOT
TORSDOF 0
REMARK  Name = ../refined-set-2016/3slz/3slz_pocket.pdb
REMARK  253 active torsions:
REMARK  status: ('A' for Active; 'I' for Inactive)
REMARK    1  A    between atoms: _2  and  _3
REMARK    2  A    between atoms: _9  and  _10
REMARK    3  A    between atoms: _15  and  _17
REMARK    4  A    between atoms: _17  and  _18
REMARK    5  A    between atoms: _17  and  _20
REMARK    6  A    between atoms: _20  and  _21
REMARK    7  A    between atoms: _24  and  _26
REMARK    8  A    between atoms: _26  and  _27
REMARK    9  A    between atoms: _26  and  _29
REMARK   10  A    between atoms: _32  and  _34
REMARK   11  A    between atoms: _34  and  _35
REMARK   12  A    between atoms: _34  and  _37
REMARK   13  A    between atoms: _37  and  _38
REMARK   14  A    between atoms: _41  and  _43
REMARK   15  A    between atoms: _43  and  _44
REMARK   16  A    between atoms: _43  and  _46
REMARK   17  A    between atoms: _46  and  _47
REMARK   18  A    between atoms: _50  and  _52
REMARK   19  A    between atoms: _52  and  _53
REMARK   20  A    between atoms: _55  and  _57
REMARK   21  A    between atoms: _57  and  _58
REMARK   22  A    between atoms: _61  and  _63
REMARK   23  A    between atoms: _63  and  _64
REMARK   24  A    between atoms: _63  and  _66
REMARK   25  A    between atoms: _66  and  _67
REMARK   26  A    between atoms: _67  and  _68
REMARK   27  A    between atoms: _73  and  _75
REMARK   28  A    between atoms: _75  and  _76
REMARK   29  A    between atoms: _75  and  _78
REMARK   30  A    between atoms: _78  and  _79
REMARK   31  A    between atoms: _84  and  _86
REMARK   32  A    between atoms: _86  and  _87
REMARK   33  A    between atoms: _86  and  _89
REMARK   34  A    between atoms: _89  and  _90
REMARK   35  A    between atoms: _92  and  _94
REMARK   36  A    between atoms: _94  and  _95
REMARK   37  A    between atoms: _94  and  _97
REMARK   38  A    between atoms: _100  and  _102
REMARK   39  A    between atoms: _102  and  _103
REMARK   40  A    between atoms: _102  and  _105
REMARK   41  A    between atoms: _105  and  _106
REMARK   42  A    between atoms: _108  and  _110
REMARK   43  A    between atoms: _110  and  _111
REMARK   44  A    between atoms: _114  and  _116
REMARK   45  A    between atoms: _116  and  _117
REMARK   46  A    between atoms: _116  and  _119
REMARK   47  A    between atoms: _119  and  _120
REMARK   48  A    between atoms: _130  and  _132
REMARK   49  A    between atoms: _132  and  _133
REMARK   50  A    between atoms: _132  and  _135
REMARK   51  A    between atoms: _138  and  _140
REMARK   52  A    between atoms: _140  and  _141
REMARK   53  A    between atoms: _140  and  _143
REMARK   54  A    between atoms: _143  and  _144
REMARK   55  A    between atoms: _144  and  _145
REMARK   56  A    between atoms: _150  and  _152
REMARK   57  A    between atoms: _152  and  _153
REMARK   58  A    between atoms: _155  and  _157
REMARK   59  A    between atoms: _157  and  _158
REMARK   60  A    between atoms: _161  and  _163
REMARK   61  A    between atoms: _163  and  _164
REMARK   62  A    between atoms: _163  and  _166
REMARK   63  A    between atoms: _166  and  _167
REMARK   64  A    between atoms: _170  and  _172
REMARK   65  A    between atoms: _172  and  _173
REMARK   66  A    between atoms: _175  and  _177
REMARK   67  A    between atoms: _177  and  _178
REMARK   68  A    between atoms: _180  and  _182
REMARK   69  A    between atoms: _182  and  _183
REMARK   70  A    between atoms: _182  and  _185
REMARK   71  A    between atoms: _185  and  _186
REMARK   72  A    between atoms: _186  and  _187
REMARK   73  A    between atoms: _187  and  _188
REMARK   74  A    between atoms: _188  and  _189
REMARK   75  A    between atoms: _193  and  _195
REMARK   76  A    between atoms: _195  and  _196
REMARK   77  A    between atoms: _195  and  _198
REMARK   78  A    between atoms: _198  and  _199
REMARK   79  A    between atoms: _204  and  _205
REMARK   80  A    between atoms: _207  and  _209
REMARK   81  A    between atoms: _209  and  _210
REMARK   82  A    between atoms: _209  and  _212
REMARK   83  A    between atoms: _212  and  _213
REMARK   84  A    between atoms: _223  and  _225
REMARK   85  A    between atoms: _225  and  _226
REMARK   86  A    between atoms: _225  and  _228
REMARK   87  A    between atoms: _228  and  _229
REMARK   88  A    between atoms: _232  and  _234
REMARK   89  A    between atoms: _234  and  _235
REMARK   90  A    between atoms: _234  and  _237
REMARK   91  A    between atoms: _240  and  _242
REMARK   92  A    between atoms: _242  and  _243
REMARK   93  A    between atoms: _242  and  _245
REMARK   94  A    between atoms: _245  and  _246
REMARK   95  A    between atoms: _249  and  _251
REMARK   96  A    between atoms: _251  and  _252
REMARK   97  A    between atoms: _251  and  _254
REMARK   98  A    between atoms: _257  and  _258
REMARK   99  A    between atoms: _263  and  _265
REMARK  100  A    between atoms: _265  and  _266
REMARK  101  A    between atoms: _265  and  _268
REMARK  102  A    between atoms: _268  and  _269
REMARK  103  A    between atoms: _274  and  _275
REMARK  104  A    between atoms: _278  and  _279
REMARK  105  A    between atoms: _284  and  _286
REMARK  106  A    between atoms: _286  and  _287
REMARK  107  A    between atoms: _286  and  _289
REMARK  108  A    between atoms: _289  and  _290
REMARK  109  A    between atoms: _293  and  _295
REMARK  110  A    between atoms: _295  and  _296
REMARK  111  A    between atoms: _295  and  _298
REMARK  112  A    between atoms: _298  and  _299
REMARK  113  A    between atoms: _302  and  _304
REMARK  114  A    between atoms: _304  and  _305
REMARK  115  A    between atoms: _307  and  _309
REMARK  116  A    between atoms: _309  and  _310
REMARK  117  A    between atoms: _309  and  _312
REMARK  118  A    between atoms: _312  and  _313
REMARK  119  A    between atoms: _313  and  _314
REMARK  120  A    between atoms: _314  and  _315
REMARK  121  A    between atoms: _325  and  _326
REMARK  122  A    between atoms: _331  and  _333
REMARK  123  A    between atoms: _333  and  _334
REMARK  124  A    between atoms: _333  and  _336
REMARK  125  A    between atoms: _336  and  _337
REMARK  126  A    between atoms: _340  and  _342
REMARK  127  A    between atoms: _342  and  _343
REMARK  128  A    between atoms: _342  and  _345
REMARK  129  A    between atoms: _348  and  _350
REMARK  130  A    between atoms: _350  and  _351
REMARK  131  A    between atoms: _350  and  _353
REMARK  132  A    between atoms: _353  and  _354
REMARK  133  A    between atoms: _357  and  _359
REMARK  134  A    between atoms: _359  and  _360
REMARK  135  A    between atoms: _359  and  _362
REMARK  136  A    between atoms: _362  and  _363
REMARK  137  A    between atoms: _366  and  _368
REMARK  138  A    between atoms: _368  and  _369
REMARK  139  A    between atoms: _371  and  _373
REMARK  140  A    between atoms: _373  and  _374
REMARK  141  A    between atoms: _377  and  _379
REMARK  142  A    between atoms: _379  and  _380
REMARK  143  A    between atoms: _379  and  _382
REMARK  144  A    between atoms: _382  and  _383
REMARK  145  A    between atoms: _383  and  _384
REMARK  146  A    between atoms: _389  and  _391
REMARK  147  A    between atoms: _391  and  _392
REMARK  148  A    between atoms: _391  and  _394
REMARK  149  A    between atoms: _394  and  _395
REMARK  150  A    between atoms: _400  and  _402
REMARK  151  A    between atoms: _402  and  _403
REMARK  152  A    between atoms: _402  and  _405
REMARK  153  A    between atoms: _405  and  _406
REMARK  154  A    between atoms: _408  and  _410
REMARK  155  A    between atoms: _410  and  _411
REMARK  156  A    between atoms: _410  and  _413
REMARK  157  A    between atoms: _416  and  _418
REMARK  158  A    between atoms: _418  and  _419
REMARK  159  A    between atoms: _418  and  _421
REMARK  160  A    between atoms: _421  and  _422
REMARK  161  A    between atoms: _424  and  _426
REMARK  162  A    between atoms: _426  and  _427
REMARK  163  A    between atoms: _430  and  _432
REMARK  164  A    between atoms: _432  and  _433
REMARK  165  A    between atoms: _432  and  _435
REMARK  166  A    between atoms: _435  and  _436
REMARK  167  A    between atoms: _446  and  _448
REMARK  168  A    between atoms: _448  and  _449
REMARK  169  A    between atoms: _448  and  _451
REMARK  170  A    between atoms: _454  and  _456
REMARK  171  A    between atoms: _456  and  _457
REMARK  172  A    between atoms: _456  and  _459
REMARK  173  A    between atoms: _459  and  _460
REMARK  174  A    between atoms: _460  and  _461
REMARK  175  A    between atoms: _466  and  _468
REMARK  176  A    between atoms: _468  and  _469
REMARK  177  A    between atoms: _471  and  _473
REMARK  178  A    between atoms: _473  and  _474
REMARK  179  A    between atoms: _477  and  _479
REMARK  180  A    between atoms: _479  and  _480
REMARK  181  A    between atoms: _479  and  _482
REMARK  182  A    between atoms: _482  and  _483
REMARK  183  A    between atoms: _486  and  _488
REMARK  184  A    between atoms: _488  and  _489
REMARK  185  A    between atoms: _491  and  _493
REMARK  186  A    between atoms: _493  and  _494
REMARK  187  A    between atoms: _496  and  _498
REMARK  188  A    between atoms: _498  and  _499
REMARK  189  A    between atoms: _498  and  _501
REMARK  190  A    between atoms: _501  and  _502
REMARK  191  A    between atoms: _502  and  _503
REMARK  192  A    between atoms: _503  and  _504
REMARK  193  A    between atoms: _504  and  _505
REMARK  194  A    between atoms: _509  and  _511
REMARK  195  A    between atoms: _511  and  _512
REMARK  196  A    between atoms: _511  and  _514
REMARK  197  A    between atoms: _514  and  _515
REMARK  198  A    between atoms: _515  and  _516
REMARK  199  A    between atoms: _516  and  _517
REMARK  200  A    between atoms: _526  and  _528
REMARK  201  A    between atoms: _528  and  _529
REMARK  202  A    between atoms: _528  and  _531
REMARK  203  A    between atoms: _531  and  _532
REMARK  204  A    between atoms: _537  and  _538
REMARK  205  A    between atoms: _540  and  _542
REMARK  206  A    between atoms: _542  and  _543
REMARK  207  A    between atoms: _542  and  _545
REMARK  208  A    between atoms: _545  and  _546
REMARK  209  A    between atoms: _556  and  _558
REMARK  210  A    between atoms: _558  and  _559
REMARK  211  A    between atoms: _558  and  _561
REMARK  212  A    between atoms: _561  and  _562
REMARK  213  A    between atoms: _564  and  _566
REMARK  214  A    between atoms: _566  and  _567
REMARK  215  A    between atoms: _566  and  _569
REMARK  216  A    between atoms: _569  and  _570
REMARK  217  A    between atoms: _573  and  _575
REMARK  218  A    between atoms: _575  and  _576
REMARK  219  A    between atoms: _575  and  _578
REMARK  220  A    between atoms: _581  and  _583
REMARK  221  A    between atoms: _583  and  _584
REMARK  222  A    between atoms: _583  and  _586
REMARK  223  A    between atoms: _586  and  _587
REMARK  224  A    between atoms: _590  and  _592
REMARK  225  A    between atoms: _592  and  _593
REMARK  226  A    between atoms: _592  and  _595
REMARK  227  A    between atoms: _598  and  _599
REMARK  228  A    between atoms: _604  and  _606
REMARK  229  A    between atoms: _606  and  _607
REMARK  230  A    between atoms: _606  and  _609
REMARK  231  A    between atoms: _609  and  _610
REMARK  232  A    between atoms: _615  and  _616
REMARK  233  A    between atoms: _619  and  _620
REMARK  234  A    between atoms: _625  and  _627
REMARK  235  A    between atoms: _627  and  _628
REMARK  236  A    between atoms: _627  and  _630
REMARK  237  A    between atoms: _630  and  _631
REMARK  238  A    between atoms: _634  and  _636
REMARK  239  A    between atoms: _636  and  _637
REMARK  240  A    between atoms: _636  and  _639
REMARK  241  A    between atoms: _639  and  _640
REMARK  242  A    between atoms: _643  and  _645
REMARK  243  A    between atoms: _645  and  _646
REMARK  244  A    between atoms: _648  and  _650
REMARK  245  A    between atoms: _650  and  _651
REMARK  246  A    between atoms: _650  and  _653
REMARK  247  A    between atoms: _653  and  _654
REMARK  248  A    between atoms: _654  and  _655
REMARK  249  A    between atoms: _655  and  _656
REMARK  250  A    between atoms: _665  and  _667
REMARK  251  A    between atoms: _667  and  _668
REMARK  252  A    between atoms: _667  and  _670
REMARK  253  A    between atoms: _670  and  _671
REMARK                            x       y       z     vdW  Elec       q    Type
REMARK                         _______ _______ _______ _____ _____    ______ ____
ROOT
ATOM      1  O   HOH     1      -6.768   8.825  13.333  0.00  0.00    +0.000 OA
ENDROOT
TORSDOF 0
