REMARK  Name = ../refined-set-2016/2hf8/2hf8_pocket.pdb
REMARK  271 active torsions:
REMARK  status: ('A' for Active; 'I' for Inactive)
REMARK    1  A    between atoms: _1  and  _3
REMARK    2  A    between atoms: _3  and  _4
REMARK    3  A    between atoms: _3  and  _6
REMARK    4  A    between atoms: _6  and  _7
REMARK    5  A    between atoms: _13  and  _15
REMARK    6  A    between atoms: _15  and  _16
REMARK    7  A    between atoms: _15  and  _18
REMARK    8  A    between atoms: _18  and  _19
REMARK    9  A    between atoms: _19  and  _20
REMARK   10  A    between atoms: _22  and  _24
REMARK   11  A    between atoms: _24  and  _25
REMARK   12  A    between atoms: _27  and  _29
REMARK   13  A    between atoms: _29  and  _30
REMARK   14  A    between atoms: _33  and  _35
REMARK   15  A    between atoms: _35  and  _36
REMARK   16  A    between atoms: _35  and  _38
REMARK   17  A    between atoms: _38  and  _39
REMARK   18  A    between atoms: _42  and  _44
REMARK   19  A    between atoms: _44  and  _45
REMARK   20  A    between atoms: _47  and  _49
REMARK   21  A    between atoms: _49  and  _50
REMARK   22  A    between atoms: _49  and  _52
REMARK   23  A    between atoms: _52  and  _53
REMARK   24  A    between atoms: _55  and  _57
REMARK   25  A    between atoms: _57  and  _58
REMARK   26  A    between atoms: _60  and  _62
REMARK   27  A    between atoms: _62  and  _63
REMARK   28  A    between atoms: _62  and  _65
REMARK   29  A    between atoms: _65  and  _66
REMARK   30  A    between atoms: _66  and  _67
REMARK   31  A    between atoms: _67  and  _68
REMARK   32  A    between atoms: _68  and  _69
REMARK   33  A    between atoms: _73  and  _75
REMARK   34  A    between atoms: _75  and  _76
REMARK   35  A    between atoms: _75  and  _78
REMARK   36  A    between atoms: _78  and  _79
REMARK   37  A    between atoms: _82  and  _84
REMARK   38  A    between atoms: _84  and  _85
REMARK   39  A    between atoms: _84  and  _87
REMARK   40  A    between atoms: _87  and  _88
REMARK   41  A    between atoms: _91  and  _93
REMARK   42  A    between atoms: _93  and  _94
REMARK   43  A    between atoms: _93  and  _96
REMARK   44  A    between atoms: _96  and  _97
REMARK   45  A    between atoms: _100  and  _102
REMARK   46  A    between atoms: _102  and  _103
REMARK   47  A    between atoms: _102  and  _105
REMARK   48  A    between atoms: _105  and  _106
REMARK   49  A    between atoms: _109  and  _111
REMARK   50  A    between atoms: _111  and  _112
REMARK   51  A    between atoms: _111  and  _114
REMARK   52  A    between atoms: _114  and  _115
REMARK   53  A    between atoms: _115  and  _116
REMARK   54  A    between atoms: _119  and  _121
REMARK   55  A    between atoms: _121  and  _122
REMARK   56  A    between atoms: _121  and  _124
REMARK   57  A    between atoms: _124  and  _125
REMARK   58  A    between atoms: _125  and  _126
REMARK   59  A    between atoms: _126  and  _127
REMARK   60  A    between atoms: _127  and  _128
REMARK   61  A    between atoms: _132  and  _134
REMARK   62  A    between atoms: _134  and  _135
REMARK   63  A    between atoms: _137  and  _139
REMARK   64  A    between atoms: _139  and  _140
REMARK   65  A    between atoms: _139  and  _142
REMARK   66  A    between atoms: _142  and  _143
REMARK   67  A    between atoms: _146  and  _148
REMARK   68  A    between atoms: _148  and  _149
REMARK   69  A    between atoms: _148  and  _151
REMARK   70  A    between atoms: _154  and  _156
REMARK   71  A    between atoms: _156  and  _157
REMARK   72  A    between atoms: _156  and  _159
REMARK   73  A    between atoms: _159  and  _160
REMARK   74  A    between atoms: _163  and  _165
REMARK   75  A    between atoms: _165  and  _166
REMARK   76  A    between atoms: _165  and  _168
REMARK   77  A    between atoms: _168  and  _169
REMARK   78  A    between atoms: _175  and  _177
REMARK   79  A    between atoms: _177  and  _178
REMARK   80  A    between atoms: _177  and  _180
REMARK   81  A    between atoms: _180  and  _181
REMARK   82  A    between atoms: _181  and  _183
REMARK   83  A    between atoms: _183  and  MG_609
REMARK   84  A    between atoms: _184  and  _186
REMARK   85  A    between atoms: _186  and  _187
REMARK   86  A    between atoms: _186  and  _189
REMARK   87  A    between atoms: _189  and  _190
REMARK   88  A    between atoms: _190  and  _191
REMARK   89  A    between atoms: _191  and  _192
REMARK   90  A    between atoms: _201  and  _203
REMARK   91  A    between atoms: _203  and  _204
REMARK   92  A    between atoms: _203  and  _206
REMARK   93  A    between atoms: _206  and  _207
REMARK   94  A    between atoms: _207  and  _208
REMARK   95  A    between atoms: _210  and  _212
REMARK   96  A    between atoms: _212  and  _213
REMARK   97  A    between atoms: _212  and  _215
REMARK   98  A    between atoms: _215  and  _216
REMARK   99  A    between atoms: _216  and  _217
REMARK  100  A    between atoms: _220  and  _222
REMARK  101  A    between atoms: _222  and  _223
REMARK  102  A    between atoms: _222  and  _225
REMARK  103  A    between atoms: _225  and  _226
REMARK  104  A    between atoms: _231  and  _233
REMARK  105  A    between atoms: _233  and  _234
REMARK  106  A    between atoms: _233  and  _236
REMARK  107  A    between atoms: _239  and  _241
REMARK  108  A    between atoms: _241  and  _242
REMARK  109  A    between atoms: _244  and  _246
REMARK  110  A    between atoms: _246  and  _247
REMARK  111  A    between atoms: _246  and  _249
REMARK  112  A    between atoms: _249  and  _250
REMARK  113  A    between atoms: _255  and  _257
REMARK  114  A    between atoms: _257  and  _258
REMARK  115  A    between atoms: _257  and  _260
REMARK  116  A    between atoms: _263  and  _265
REMARK  117  A    between atoms: _265  and  _266
REMARK  118  A    between atoms: _265  and  _268
REMARK  119  A    between atoms: _268  and  _269
REMARK  120  A    between atoms: _272  and  _274
REMARK  121  A    between atoms: _274  and  _275
REMARK  122  A    between atoms: _274  and  _277
REMARK  123  A    between atoms: _277  and  _278
REMARK  124  A    between atoms: _280  and  _282
REMARK  125  A    between atoms: _282  and  _283
REMARK  126  A    between atoms: _282  and  _285
REMARK  127  A    between atoms: _285  and  _286
REMARK  128  A    between atoms: _289  and  _291
REMARK  129  A    between atoms: _291  and  _292
REMARK  130  A    between atoms: _291  and  _294
REMARK  131  A    between atoms: _294  and  _295
REMARK  132  A    between atoms: _298  and  _300
REMARK  133  A    between atoms: _300  and  _301
REMARK  134  A    between atoms: _300  and  _303
REMARK  135  A    between atoms: _303  and  _304
REMARK  136  A    between atoms: _304  and  _305
REMARK  137  A    between atoms: _308  and  _310
REMARK  138  A    between atoms: _310  and  _311
REMARK  139  A    between atoms: _310  and  _313
REMARK  140  A    between atoms: _313  and  _314
REMARK  141  A    between atoms: _317  and  _319
REMARK  142  A    between atoms: _319  and  _320
REMARK  143  A    between atoms: _319  and  _322
REMARK  144  A    between atoms: _322  and  _323
REMARK  145  A    between atoms: _328  and  _330
REMARK  146  A    between atoms: _330  and  _331
REMARK  147  A    between atoms: _330  and  _333
REMARK  148  A    between atoms: _333  and  _334
REMARK  149  A    between atoms: _334  and  _335
REMARK  150  A    between atoms: _335  and  _336
REMARK  151  A    between atoms: _336  and  _337
REMARK  152  A    between atoms: _341  and  _343
REMARK  153  A    between atoms: _343  and  _344
REMARK  154  A    between atoms: _343  and  _346
REMARK  155  A    between atoms: _346  and  _347
REMARK  156  A    between atoms: _350  and  _352
REMARK  157  A    between atoms: _352  and  _353
REMARK  158  A    between atoms: _352  and  _355
REMARK  159  A    between atoms: _355  and  _356
REMARK  160  A    between atoms: _359  and  _361
REMARK  161  A    between atoms: _361  and  _362
REMARK  162  A    between atoms: _361  and  _364
REMARK  163  A    between atoms: _364  and  _365
REMARK  164  A    between atoms: _368  and  _370
REMARK  165  A    between atoms: _370  and  _371
REMARK  166  A    between atoms: _374  and  _376
REMARK  167  A    between atoms: _376  and  _377
REMARK  168  A    between atoms: _376  and  _379
REMARK  169  A    between atoms: _379  and  _380
REMARK  170  A    between atoms: _383  and  _385
REMARK  171  A    between atoms: _385  and  _386
REMARK  172  A    between atoms: _385  and  _388
REMARK  173  A    between atoms: _388  and  _389
REMARK  174  A    between atoms: _391  and  _393
REMARK  175  A    between atoms: _393  and  _394
REMARK  176  A    between atoms: _393  and  _396
REMARK  177  A    between atoms: _396  and  _397
REMARK  178  A    between atoms: _400  and  _402
REMARK  179  A    between atoms: _402  and  _403
REMARK  180  A    between atoms: _402  and  _405
REMARK  181  A    between atoms: _405  and  _406
REMARK  182  A    between atoms: _406  and  _407
REMARK  183  A    between atoms: _407  and  _408
REMARK  184  A    between atoms: _408  and  _409
REMARK  185  A    between atoms: _413  and  _415
REMARK  186  A    between atoms: _415  and  _416
REMARK  187  A    between atoms: _415  and  _418
REMARK  188  A    between atoms: _418  and  _419
REMARK  189  A    between atoms: _422  and  _424
REMARK  190  A    between atoms: _424  and  _425
REMARK  191  A    between atoms: _424  and  _427
REMARK  192  A    between atoms: _427  and  _428
REMARK  193  A    between atoms: _428  and  _429
REMARK  194  A    between atoms: _431  and  _433
REMARK  195  A    between atoms: _433  and  _434
REMARK  196  A    between atoms: _433  and  _436
REMARK  197  A    between atoms: _436  and  _437
REMARK  198  A    between atoms: _437  and  _438
REMARK  199  A    between atoms: _441  and  _443
REMARK  200  A    between atoms: _443  and  _444
REMARK  201  A    between atoms: _443  and  _446
REMARK  202  A    between atoms: _446  and  _447
REMARK  203  A    between atoms: _450  and  _452
REMARK  204  A    between atoms: _452  and  _453
REMARK  205  A    between atoms: _452  and  _455
REMARK  206  A    between atoms: _455  and  _456
REMARK  207  A    between atoms: _458  and  _460
REMARK  208  A    between atoms: _460  and  _461
REMARK  209  A    between atoms: _460  and  _463
REMARK  210  A    between atoms: _463  and  _464
REMARK  211  A    between atoms: _467  and  _469
REMARK  212  A    between atoms: _469  and  _470
REMARK  213  A    between atoms: _469  and  _472
REMARK  214  A    between atoms: _472  and  _473
REMARK  215  A    between atoms: _476  and  _478
REMARK  216  A    between atoms: _478  and  _479
REMARK  217  A    between atoms: _478  and  _481
REMARK  218  A    between atoms: _481  and  _482
REMARK  219  A    between atoms: _482  and  _483
REMARK  220  A    between atoms: _486  and  _488
REMARK  221  A    between atoms: _488  and  _489
REMARK  222  A    between atoms: _491  and  _493
REMARK  223  A    between atoms: _493  and  _494
REMARK  224  A    between atoms: _493  and  _496
REMARK  225  A    between atoms: _496  and  _497
REMARK  226  A    between atoms: _500  and  _502
REMARK  227  A    between atoms: _502  and  _503
REMARK  228  A    between atoms: _502  and  _505
REMARK  229  A    between atoms: _505  and  _506
REMARK  230  A    between atoms: _509  and  _511
REMARK  231  A    between atoms: _511  and  _512
REMARK  232  A    between atoms: _511  and  _514
REMARK  233  A    between atoms: _514  and  _515
REMARK  234  A    between atoms: _518  and  _520
REMARK  235  A    between atoms: _520  and  _521
REMARK  236  A    between atoms: _520  and  _523
REMARK  237  A    between atoms: _523  and  _524
REMARK  238  A    between atoms: _527  and  _529
REMARK  239  A    between atoms: _529  and  _530
REMARK  240  A    between atoms: _529  and  _532
REMARK  241  A    between atoms: _532  and  _533
REMARK  242  A    between atoms: _533  and  _534
REMARK  243  A    between atoms: _534  and  _535
REMARK  244  A    between atoms: _535  and  _536
REMARK  245  A    between atoms: _540  and  _542
REMARK  246  A    between atoms: _542  and  _543
REMARK  247  A    between atoms: _542  and  _545
REMARK  248  A    between atoms: _545  and  _546
REMARK  249  A    between atoms: _551  and  _553
REMARK  250  A    between atoms: _553  and  _554
REMARK  251  A    between atoms: _553  and  _556
REMARK  252  A    between atoms: _556  and  _557
REMARK  253  A    between atoms: _560  and  _562
REMARK  254  A    between atoms: _562  and  _563
REMARK  255  A    between atoms: _566  and  _568
REMARK  256  A    between atoms: _568  and  _569
REMARK  257  A    between atoms: _568  and  _571
REMARK  258  A    between atoms: _571  and  _572
REMARK  259  A    between atoms: _575  and  _577
REMARK  260  A    between atoms: _577  and  _578
REMARK  261  A    between atoms: _581  and  _583
REMARK  262  A    between atoms: _583  and  _584
REMARK  263  A    between atoms: _583  and  _586
REMARK  264  A    between atoms: _589  and  _591
REMARK  265  A    between atoms: _591  and  _592
REMARK  266  A    between atoms: _594  and  _596
REMARK  267  A    between atoms: _596  and  _597
REMARK  268  A    between atoms: _600  and  _602
REMARK  269  A    between atoms: _602  and  _603
REMARK  270  A    between atoms: _602  and  _605
REMARK  271  A    between atoms: _605  and  _606
REMARK                            x       y       z     vdW  Elec       q    Type
REMARK                         _______ _______ _______ _____ _____    ______ ____
ROOT
ATOM      1  CA  LYS A   9      -4.429  12.051 -26.778  0.00  0.00    +0.000 C 
ENDROOT
BRANCH   1   2
ATOM      2  C   LYS A   9      -5.676  11.443 -27.432  0.00  0.00    +0.000 C 
ATOM      3  N   THR A  10      -6.724  12.251 -27.590  0.00  0.00    +0.000 N 
ATOM      4  H   THR A  10      -6.650  13.241 -27.279  0.00  0.00    +0.000 HD
ATOM      5  O   LYS A   9      -5.684  10.264 -27.775  0.00  0.00    +0.000 OA
BRANCH   3   6
ATOM      6  CA  THR A  10      -7.981  11.784 -28.191  0.00  0.00    +0.000 C 
BRANCH   6   7
ATOM      7  C   THR A  10      -7.788  11.326 -29.643  0.00  0.00    +0.000 C 
ATOM      8  O   THR A  10      -8.239  10.238 -30.014  0.00  0.00    +0.000 OA
ATOM      9  N   LEU A  11      -7.090  12.131 -30.445  0.00  0.00    +0.000 N 
ATOM     10  H   LEU A  11      -6.696  13.015 -30.063  0.00  0.00    +0.000 HD
BRANCH   9  11
ATOM     11  CA  LEU A  11      -6.867  11.795 -31.854  0.00  0.00    +0.000 C 
BRANCH  11  12
ATOM     12  C   LEU A  11      -6.037  10.523 -31.999  0.00  0.00    +0.000 C 
ATOM     13  N   LEU A  12      -5.077  10.324 -31.094  0.00  0.00    +0.000 N 
ATOM     14  H   LEU A  12      -4.898  11.058 -30.379  0.00  0.00    +0.000 HD
ATOM     15  O   LEU A  11      -6.277   9.733 -32.905  0.00  0.00    +0.000 OA
BRANCH  13  16
ATOM     16  CA  LEU A  12      -4.271   9.107 -31.078  0.00  0.00    +0.000 C 
BRANCH  16  17
ATOM     17  C   LEU A  12      -5.148   7.894 -30.782  0.00  0.00    +0.000 C 
ATOM     18  N   ILE A  13      -5.978   8.003 -29.746  0.00  0.00    +0.000 N 
ATOM     19  H   ILE A  13      -5.955   8.874 -29.179  0.00  0.00    +0.000 HD
ATOM     20  O   LEU A  12      -5.074   6.892 -31.485  0.00  0.00    +0.000 OA
BRANCH  18  21
ATOM     21  CA  ILE A  13      -6.922   6.946 -29.372  0.00  0.00    +0.000 C 
BRANCH  21  22
ATOM     22  C   ILE A  13      -7.903   6.627 -30.511  0.00  0.00    +0.000 C 
ATOM     23  O   ILE A  13      -8.153   5.454 -30.815  0.00  0.00    +0.000 OA
ATOM     24  N   GLU A  14      -8.446   7.676 -31.132  0.00  0.00    +0.000 N 
ATOM     25  H   GLU A  14      -8.228   8.630 -30.780  0.00  0.00    +0.000 HD
BRANCH  24  26
ATOM     26  CA  GLU A  14      -9.337   7.543 -32.289  0.00  0.00    +0.000 C 
BRANCH  26  27
ATOM     27  C   GLU A  14      -8.697   6.718 -33.398  0.00  0.00    +0.000 C 
ATOM     28  N   LYS A  15      -7.455   7.056 -33.740  0.00  0.00    +0.000 N 
ATOM     29  H   LYS A  15      -7.004   7.859 -33.257  0.00  0.00    +0.000 HD
ATOM     30  O   GLU A  14      -9.314   5.796 -33.924  0.00  0.00    +0.000 OA
BRANCH  28  31
ATOM     31  CA  LYS A  15      -6.701   6.341 -34.768  0.00  0.00    +0.000 C 
BRANCH  31  32
ATOM     32  C   LYS A  15      -6.395   4.903 -34.346  0.00  0.00    +0.000 C 
ATOM     33  O   LYS A  15      -6.443   3.988 -35.170  0.00  0.00    +0.000 OA
ENDBRANCH  31  32
BRANCH  31  34
ATOM     34  CB  LYS A  15      -5.397   7.085 -35.113  0.00  0.00    +0.000 C 
BRANCH  34  35
ATOM     35  CG  LYS A  15      -5.583   8.475 -35.750  0.00  0.00    +0.000 C 
BRANCH  35  36
ATOM     36  CD  LYS A  15      -6.247   8.379 -37.119  0.00  0.00    +0.000 C 
BRANCH  36  37
ATOM     37  CE  LYS A  15      -6.284   9.732 -37.813  0.00  0.00    +0.000 C 
BRANCH  37  38
ATOM     38  NZ  LYS A  15      -6.921   9.597 -39.160  0.00  0.00    +0.000 N 
ATOM     39  HZ1 LYS A  15      -7.892   9.241 -39.049  0.00  0.00    +0.000 HD
ATOM     40  HZ2 LYS A  15      -6.942  10.526 -39.627  0.00  0.00    +0.000 HD
ATOM     41  HZ3 LYS A  15      -6.370   8.930 -39.737  0.00  0.00    +0.000 HD
ENDBRANCH  37  38
ENDBRANCH  36  37
ENDBRANCH  35  36
ENDBRANCH  34  35
ENDBRANCH  31  34
ENDBRANCH  28  31
ENDBRANCH  26  27
BRANCH  26  42
ATOM     42  CB  GLU A  14      -9.718   8.921 -32.840  0.00  0.00    +0.000 C 
BRANCH  42  43
ATOM     43  CG  GLU A  14     -10.759   9.682 -32.037  0.00  0.00    +0.000 C 
BRANCH  43  44
ATOM     44  CD  GLU A  14     -11.101  11.017 -32.683  0.00  0.00    +0.000 C 
ATOM     45  OE2 GLU A  14     -10.427  12.023 -32.399  0.00  0.00    +0.000 OA
ATOM     46  OE1 GLU A  14     -12.038  11.059 -33.500  0.00  0.00    +0.000 OA
ENDBRANCH  43  44
ENDBRANCH  42  43
ENDBRANCH  26  42
ENDBRANCH  24  26
ENDBRANCH  21  22
BRANCH  21  47
ATOM     47  CB  ILE A  13      -7.669   7.309 -28.054  0.00  0.00    +0.000 C 
ATOM     48  CG2 ILE A  13      -8.924   6.430 -27.860  0.00  0.00    +0.000 C 
BRANCH  47  49
ATOM     49  CG1 ILE A  13      -6.703   7.199 -26.865  0.00  0.00    +0.000 C 
ATOM     50  CD1 ILE A  13      -7.208   7.804 -25.561  0.00  0.00    +0.000 C 
ENDBRANCH  47  49
ENDBRANCH  21  47
ENDBRANCH  18  21
ENDBRANCH  16  17
BRANCH  16  51
ATOM     51  CB  LEU A  12      -3.116   9.208 -30.063  0.00  0.00    +0.000 C 
BRANCH  51  52
ATOM     52  CG  LEU A  12      -2.228   7.966 -29.866  0.00  0.00    +0.000 C 
ATOM     53  CD2 LEU A  12      -1.192   8.179 -28.754  0.00  0.00    +0.000 C 
ATOM     54  CD1 LEU A  12      -1.557   7.509 -31.164  0.00  0.00    +0.000 C 
ENDBRANCH  51  52
ENDBRANCH  16  51
ENDBRANCH  13  16
ENDBRANCH  11  12
BRANCH  11  55
ATOM     55  CB  LEU A  11      -6.227  12.967 -32.628  0.00  0.00    +0.000 C 
BRANCH  55  56
ATOM     56  CG  LEU A  11      -6.153  12.849 -34.160  0.00  0.00    +0.000 C 
ATOM     57  CD2 LEU A  11      -7.532  12.621 -34.776  0.00  0.00    +0.000 C 
ATOM     58  CD1 LEU A  11      -5.478  14.075 -34.797  0.00  0.00    +0.000 C 
ENDBRANCH  55  56
ENDBRANCH  11  55
ENDBRANCH   9  11
ENDBRANCH   6   7
BRANCH   6  59
ATOM     59  CB  THR A  10      -9.101  12.842 -28.086  0.00  0.00    +0.000 C 
ATOM     60  CG2 THR A  10     -10.443  12.274 -28.542  0.00  0.00    +0.000 C 
BRANCH  59  61
ATOM     61  OG1 THR A  10      -9.216  13.276 -26.720  0.00  0.00    +0.000 OA
ATOM     62  HG1 THR A  10      -9.934  13.954 -26.650  0.00  0.00    +0.000 HD
ENDBRANCH  59  61
ENDBRANCH   6  59
ENDBRANCH   3   6
ENDBRANCH   1   2
BRANCH   1  64
ATOM     63  C   GLY A   8      -3.697  13.402 -28.714  0.00  0.00    +0.000 C 
ATOM     64  N   LYS A   9      -3.996  13.308 -27.416  0.00  0.00    +0.000 N 
ATOM     65  H   LYS A   9      -3.920  14.162 -26.827  0.00  0.00    +0.000 HD
ATOM     66  O   GLY A   8      -3.776  12.452 -29.495  0.00  0.00    +0.000 OA
BRANCH  63  67
ATOM     67  CA  GLY A   8      -3.255  14.768 -29.222  0.00  0.00    +0.000 C 
BRANCH  67  69
ATOM     68  C   SER A   7      -1.500  16.204 -28.294  0.00  0.00    +0.000 C 
ATOM     69  N   GLY A   8      -2.724  15.682 -28.209  0.00  0.00    +0.000 N 
ATOM     70  H   GLY A   8      -3.322  15.933 -27.396  0.00  0.00    +0.000 HD
ATOM     71  O   SER A   7      -0.701  15.915 -29.194  0.00  0.00    +0.000 OA
BRANCH  68  72
ATOM     72  CA  SER A   7      -1.099  17.180 -27.184  0.00  0.00    +0.000 C 
BRANCH  72  74
ATOM     73  C   GLY A   6      -3.024  18.709 -27.310  0.00  0.00    +0.000 C 
ATOM     74  N   SER A   7      -2.228  17.915 -26.598  0.00  0.00    +0.000 N 
ATOM     75  H   SER A   7      -2.414  17.810 -25.580  0.00  0.00    +0.000 HD
ATOM     76  O   GLY A   6      -2.850  18.939 -28.508  0.00  0.00    +0.000 OA
BRANCH  73  77
ATOM     77  CA  GLY A   6      -4.192  19.342 -26.569  0.00  0.00    +0.000 C 
BRANCH  77  80
ATOM     78  C   ILE A   5      -3.298  20.163 -24.437  0.00  0.00    +0.000 C 
ATOM     79  O   ILE A   5      -2.513  20.938 -24.985  0.00  0.00    +0.000 OA
ATOM     80  N   GLY A   6      -4.113  19.347 -25.106  0.00  0.00    +0.000 N 
ATOM     81  H   GLY A   6      -4.715  18.690 -24.570  0.00  0.00    +0.000 HD
BRANCH  78  82
ATOM     82  CA  ILE A   5      -3.372  20.089 -22.918  0.00  0.00    +0.000 C 
BRANCH  82  84
ATOM     83  C   ALA A   4      -1.656  18.432 -22.432  0.00  0.00    +0.000 C 
ATOM     84  N   ILE A   5      -2.076  19.690 -22.361  0.00  0.00    +0.000 N 
ATOM     85  H   ILE A   5      -1.475  20.404 -21.902  0.00  0.00    +0.000 HD
ATOM     86  O   ALA A   4      -2.324  17.537 -22.965  0.00  0.00    +0.000 OA
BRANCH  83  87
ATOM     87  CA  ALA A   4      -0.287  18.120 -21.820  0.00  0.00    +0.000 C 
ATOM     88  CB  ALA A   4       0.793  19.046 -22.380  0.00  0.00    +0.000 C 
BRANCH  87  91
ATOM     89  C   GLY A   3      -0.432  15.729 -21.373  0.00  0.00    +0.000 C 
ATOM     90  O   GLY A   3      -1.108  15.896 -20.362  0.00  0.00    +0.000 OA
ATOM     91  N   ALA A   4       0.054  16.731 -22.096  0.00  0.00    +0.000 N 
ATOM     92  H   ALA A   4       0.698  16.517 -22.884  0.00  0.00    +0.000 HD
BRANCH  89  93
ATOM     93  CA  GLY A   3      -0.101  14.337 -21.864  0.00  0.00    +0.000 C 
BRANCH  93  95
ATOM     94  C   UNK A   2      -0.719  12.024 -21.375  0.00  0.00    +0.000 C 
ATOM     95  N   GLY A   3      -0.668  13.302 -21.012  0.00  0.00    +0.000 N 
ATOM     96  H   GLY A   3      -1.048  13.573 -20.083  0.00  0.00    +0.000 HD
ATOM     97  O   UNK A   2      -0.330  11.614 -22.464  0.00  0.00    +0.000 OA
BRANCH  94  98
ATOM     98  C   UNK A   2      -1.299  11.063 -20.348  0.00  0.00    +0.000 C 
BRANCH  98 100
ATOM     99  C   PHE A   1      -2.792   9.363 -21.289  0.00  0.00    +0.000 C 
ATOM    100  N   UNK A   2      -1.570   9.774 -20.964  0.00  0.00    +0.000 N 
ATOM    101  H   UNK A   2      -0.768   9.142 -21.160  0.00  0.00    +0.000 HD
ATOM    102  O   PHE A   1      -3.819  10.000 -21.047  0.00  0.00    +0.000 OA
BRANCH  99 103
ATOM    103  CA  PHE A   1      -2.856   8.015 -21.996  0.00  0.00    +0.000 C 
BRANCH 103 104
ATOM    104  N   PHE A   1      -3.286   6.963 -21.075  0.00  0.00    +0.000 NA
ATOM    105  H   PHE A   1      -4.304   6.835 -20.902  0.00  0.00    +0.000 HD
ENDBRANCH 103 104
BRANCH 103 106
ATOM    106  CB  PHE A   1      -3.783   8.107 -23.213  0.00  0.00    +0.000 C 
BRANCH 106 107
ATOM    107  CG  PHE A   1      -3.697   6.923 -24.144  0.00  0.00    +0.000 A 
ATOM    108  CD2 PHE A   1      -4.409   5.760 -23.881  0.00  0.00    +0.000 A 
ATOM    109  CE2 PHE A   1      -4.341   4.669 -24.739  0.00  0.00    +0.000 A 
ATOM    110  CZ  PHE A   1      -3.563   4.737 -25.887  0.00  0.00    +0.000 A 
ATOM    111  CE1 PHE A   1      -2.852   5.901 -26.168  0.00  0.00    +0.000 A 
ATOM    112  CD1 PHE A   1      -2.925   6.987 -25.296  0.00  0.00    +0.000 A 
ENDBRANCH 106 107
ENDBRANCH 103 106
ENDBRANCH  99 103
ENDBRANCH  98 100
BRANCH  98 113
ATOM    113  C   UNK A   2      -0.311  10.897 -19.194  0.00  0.00    +0.000 C 
BRANCH 113 114
ATOM    114  C   UNK A   2      -0.916  10.368 -17.903  0.00  0.00    +0.000 C 
BRANCH 114 115
ATOM    115 SE   UNK A   2       0.496   9.720 -16.713  0.00  0.00    +0.000 Se
ATOM    116  C   UNK A   2       0.909   8.100 -17.644  0.00  0.00    +0.000 C 
ENDBRANCH 114 115
ENDBRANCH 113 114
ENDBRANCH  98 113
ENDBRANCH  94  98
ENDBRANCH  93  95
ENDBRANCH  89  93
ENDBRANCH  87  91
ENDBRANCH  83  87
ENDBRANCH  82  84
BRANCH  82 117
ATOM    117  CB  ILE A   5      -3.847  21.465 -22.373  0.00  0.00    +0.000 C 
ATOM    118  CG2 ILE A   5      -5.201  21.860 -22.991  0.00  0.00    +0.000 C 
BRANCH 117 119
ATOM    119  CG1 ILE A   5      -3.889  21.478 -20.836  0.00  0.00    +0.000 C 
ATOM    120  CD1 ILE A   5      -5.063  20.746 -20.233  0.00  0.00    +0.000 C 
ENDBRANCH 117 119
ENDBRANCH  82 117
ENDBRANCH  78  82
ENDBRANCH  77  80
ENDBRANCH  73  77
ENDBRANCH  72  74
BRANCH  72 121
ATOM    121  CB  SER A   7      -0.354  16.410 -26.097  0.00  0.00    +0.000 C 
BRANCH 121 122
ATOM    122  OG  SER A   7       0.307  17.290 -25.208  0.00  0.00    +0.000 OA
ATOM    123  H   SER A   7       0.960  17.837 -25.712  0.00  0.00    +0.000 HD
ENDBRANCH 121 122
ENDBRANCH  72 121
ENDBRANCH  68  72
ENDBRANCH  67  69
ENDBRANCH  63  67
ENDBRANCH   1  64
BRANCH   1 124
ATOM    124  CB  LYS A   9      -4.691  12.250 -25.274  0.00  0.00    +0.000 C 
BRANCH 124 125
ATOM    125  CG  LYS A   9      -3.487  12.742 -24.454  0.00  0.00    +0.000 C 
BRANCH 125 126
ATOM    126  CD  LYS A   9      -3.836  12.936 -22.963  0.00  0.00    +0.000 C 
BRANCH 126 127
ATOM    127  CE  LYS A   9      -4.650  14.206 -22.684  0.00  0.00    +0.000 C 
BRANCH 127 128
ATOM    128  NZ  LYS A   9      -4.106  15.428 -23.349  0.00  0.00    +0.000 N 
ATOM    129  HZ1 LYS A   9      -3.137  15.601 -23.014  0.00  0.00    +0.000 HD
ATOM    130  HZ2 LYS A   9      -4.706  16.245 -23.116  0.00  0.00    +0.000 HD
ATOM    131  HZ3 LYS A   9      -4.097  15.286 -24.379  0.00  0.00    +0.000 HD
ENDBRANCH 127 128
ENDBRANCH 126 127
ENDBRANCH 125 126
ENDBRANCH 124 125
ENDBRANCH   1 124
TORSDOF 60
REMARK  Name = ../refined-set-2016/2hf8/2hf8_pocket.pdb
REMARK  271 active torsions:
REMARK  status: ('A' for Active; 'I' for Inactive)
REMARK    1  A    between atoms: _1  and  _3
REMARK    2  A    between atoms: _3  and  _4
REMARK    3  A    between atoms: _3  and  _6
REMARK    4  A    between atoms: _6  and  _7
REMARK    5  A    between atoms: _13  and  _15
REMARK    6  A    between atoms: _15  and  _16
REMARK    7  A    between atoms: _15  and  _18
REMARK    8  A    between atoms: _18  and  _19
REMARK    9  A    between atoms: _19  and  _20
REMARK   10  A    between atoms: _22  and  _24
REMARK   11  A    between atoms: _24  and  _25
REMARK   12  A    between atoms: _27  and  _29
REMARK   13  A    between atoms: _29  and  _30
REMARK   14  A    between atoms: _33  and  _35
REMARK   15  A    between atoms: _35  and  _36
REMARK   16  A    between atoms: _35  and  _38
REMARK   17  A    between atoms: _38  and  _39
REMARK   18  A    between atoms: _42  and  _44
REMARK   19  A    between atoms: _44  and  _45
REMARK   20  A    between atoms: _47  and  _49
REMARK   21  A    between atoms: _49  and  _50
REMARK   22  A    between atoms: _49  and  _52
REMARK   23  A    between atoms: _52  and  _53
REMARK   24  A    between atoms: _55  and  _57
REMARK   25  A    between atoms: _57  and  _58
REMARK   26  A    between atoms: _60  and  _62
REMARK   27  A    between atoms: _62  and  _63
REMARK   28  A    between atoms: _62  and  _65
REMARK   29  A    between atoms: _65  and  _66
REMARK   30  A    between atoms: _66  and  _67
REMARK   31  A    between atoms: _67  and  _68
REMARK   32  A    between atoms: _68  and  _69
REMARK   33  A    between atoms: _73  and  _75
REMARK   34  A    between atoms: _75  and  _76
REMARK   35  A    between atoms: _75  and  _78
REMARK   36  A    between atoms: _78  and  _79
REMARK   37  A    between atoms: _82  and  _84
REMARK   38  A    between atoms: _84  and  _85
REMARK   39  A    between atoms: _84  and  _87
REMARK   40  A    between atoms: _87  and  _88
REMARK   41  A    between atoms: _91  and  _93
REMARK   42  A    between atoms: _93  and  _94
REMARK   43  A    between atoms: _93  and  _96
REMARK   44  A    between atoms: _96  and  _97
REMARK   45  A    between atoms: _100  and  _102
REMARK   46  A    between atoms: _102  and  _103
REMARK   47  A    between atoms: _102  and  _105
REMARK   48  A    between atoms: _105  and  _106
REMARK   49  A    between atoms: _109  and  _111
REMARK   50  A    between atoms: _111  and  _112
REMARK   51  A    between atoms: _111  and  _114
REMARK   52  A    between atoms: _114  and  _115
REMARK   53  A    between atoms: _115  and  _116
REMARK   54  A    between atoms: _119  and  _121
REMARK   55  A    between atoms: _121  and  _122
REMARK   56  A    between atoms: _121  and  _124
REMARK   57  A    between atoms: _124  and  _125
REMARK   58  A    between atoms: _125  and  _126
REMARK   59  A    between atoms: _126  and  _127
REMARK   60  A    between atoms: _127  and  _128
REMARK   61  A    between atoms: _132  and  _134
REMARK   62  A    between atoms: _134  and  _135
REMARK   63  A    between atoms: _137  and  _139
REMARK   64  A    between atoms: _139  and  _140
REMARK   65  A    between atoms: _139  and  _142
REMARK   66  A    between atoms: _142  and  _143
REMARK   67  A    between atoms: _146  and  _148
REMARK   68  A    between atoms: _148  and  _149
REMARK   69  A    between atoms: _148  and  _151
REMARK   70  A    between atoms: _154  and  _156
REMARK   71  A    between atoms: _156  and  _157
REMARK   72  A    between atoms: _156  and  _159
REMARK   73  A    between atoms: _159  and  _160
REMARK   74  A    between atoms: _163  and  _165
REMARK   75  A    between atoms: _165  and  _166
REMARK   76  A    between atoms: _165  and  _168
REMARK   77  A    between atoms: _168  and  _169
REMARK   78  A    between atoms: _175  and  _177
REMARK   79  A    between atoms: _177  and  _178
REMARK   80  A    between atoms: _177  and  _180
REMARK   81  A    between atoms: _180  and  _181
REMARK   82  A    between atoms: _181  and  _183
REMARK   83  A    between atoms: _183  and  MG_609
REMARK   84  A    between atoms: _184  and  _186
REMARK   85  A    between atoms: _186  and  _187
REMARK   86  A    between atoms: _186  and  _189
REMARK   87  A    between atoms: _189  and  _190
REMARK   88  A    between atoms: _190  and  _191
REMARK   89  A    between atoms: _191  and  _192
REMARK   90  A    between atoms: _201  and  _203
REMARK   91  A    between atoms: _203  and  _204
REMARK   92  A    between atoms: _203  and  _206
REMARK   93  A    between atoms: _206  and  _207
REMARK   94  A    between atoms: _207  and  _208
REMARK   95  A    between atoms: _210  and  _212
REMARK   96  A    between atoms: _212  and  _213
REMARK   97  A    between atoms: _212  and  _215
REMARK   98  A    between atoms: _215  and  _216
REMARK   99  A    between atoms: _216  and  _217
REMARK  100  A    between atoms: _220  and  _222
REMARK  101  A    between atoms: _222  and  _223
REMARK  102  A    between atoms: _222  and  _225
REMARK  103  A    between atoms: _225  and  _226
REMARK  104  A    between atoms: _231  and  _233
REMARK  105  A    between atoms: _233  and  _234
REMARK  106  A    between atoms: _233  and  _236
REMARK  107  A    between atoms: _239  and  _241
REMARK  108  A    between atoms: _241  and  _242
REMARK  109  A    between atoms: _244  and  _246
REMARK  110  A    between atoms: _246  and  _247
REMARK  111  A    between atoms: _246  and  _249
REMARK  112  A    between atoms: _249  and  _250
REMARK  113  A    between atoms: _255  and  _257
REMARK  114  A    between atoms: _257  and  _258
REMARK  115  A    between atoms: _257  and  _260
REMARK  116  A    between atoms: _263  and  _265
REMARK  117  A    between atoms: _265  and  _266
REMARK  118  A    between atoms: _265  and  _268
REMARK  119  A    between atoms: _268  and  _269
REMARK  120  A    between atoms: _272  and  _274
REMARK  121  A    between atoms: _274  and  _275
REMARK  122  A    between atoms: _274  and  _277
REMARK  123  A    between atoms: _277  and  _278
REMARK  124  A    between atoms: _280  and  _282
REMARK  125  A    between atoms: _282  and  _283
REMARK  126  A    between atoms: _282  and  _285
REMARK  127  A    between atoms: _285  and  _286
REMARK  128  A    between atoms: _289  and  _291
REMARK  129  A    between atoms: _291  and  _292
REMARK  130  A    between atoms: _291  and  _294
REMARK  131  A    between atoms: _294  and  _295
REMARK  132  A    between atoms: _298  and  _300
REMARK  133  A    between atoms: _300  and  _301
REMARK  134  A    between atoms: _300  and  _303
REMARK  135  A    between atoms: _303  and  _304
REMARK  136  A    between atoms: _304  and  _305
REMARK  137  A    between atoms: _308  and  _310
REMARK  138  A    between atoms: _310  and  _311
REMARK  139  A    between atoms: _310  and  _313
REMARK  140  A    between atoms: _313  and  _314
REMARK  141  A    between atoms: _317  and  _319
REMARK  142  A    between atoms: _319  and  _320
REMARK  143  A    between atoms: _319  and  _322
REMARK  144  A    between atoms: _322  and  _323
REMARK  145  A    between atoms: _328  and  _330
REMARK  146  A    between atoms: _330  and  _331
REMARK  147  A    between atoms: _330  and  _333
REMARK  148  A    between atoms: _333  and  _334
REMARK  149  A    between atoms: _334  and  _335
REMARK  150  A    between atoms: _335  and  _336
REMARK  151  A    between atoms: _336  and  _337
REMARK  152  A    between atoms: _341  and  _343
REMARK  153  A    between atoms: _343  and  _344
REMARK  154  A    between atoms: _343  and  _346
REMARK  155  A    between atoms: _346  and  _347
REMARK  156  A    between atoms: _350  and  _352
REMARK  157  A    between atoms: _352  and  _353
REMARK  158  A    between atoms: _352  and  _355
REMARK  159  A    between atoms: _355  and  _356
REMARK  160  A    between atoms: _359  and  _361
REMARK  161  A    between atoms: _361  and  _362
REMARK  162  A    between atoms: _361  and  _364
REMARK  163  A    between atoms: _364  and  _365
REMARK  164  A    between atoms: _368  and  _370
REMARK  165  A    between atoms: _370  and  _371
REMARK  166  A    between atoms: _374  and  _376
REMARK  167  A    between atoms: _376  and  _377
REMARK  168  A    between atoms: _376  and  _379
REMARK  169  A    between atoms: _379  and  _380
REMARK  170  A    between atoms: _383  and  _385
REMARK  171  A    between atoms: _385  and  _386
REMARK  172  A    between atoms: _385  and  _388
REMARK  173  A    between atoms: _388  and  _389
REMARK  174  A    between atoms: _391  and  _393
REMARK  175  A    between atoms: _393  and  _394
REMARK  176  A    between atoms: _393  and  _396
REMARK  177  A    between atoms: _396  and  _397
REMARK  178  A    between atoms: _400  and  _402
REMARK  179  A    between atoms: _402  and  _403
REMARK  180  A    between atoms: _402  and  _405
REMARK  181  A    between atoms: _405  and  _406
REMARK  182  A    between atoms: _406  and  _407
REMARK  183  A    between atoms: _407  and  _408
REMARK  184  A    between atoms: _408  and  _409
REMARK  185  A    between atoms: _413  and  _415
REMARK  186  A    between atoms: _415  and  _416
REMARK  187  A    between atoms: _415  and  _418
REMARK  188  A    between atoms: _418  and  _419
REMARK  189  A    between atoms: _422  and  _424
REMARK  190  A    between atoms: _424  and  _425
REMARK  191  A    between atoms: _424  and  _427
REMARK  192  A    between atoms: _427  and  _428
REMARK  193  A    between atoms: _428  and  _429
REMARK  194  A    between atoms: _431  and  _433
REMARK  195  A    between atoms: _433  and  _434
REMARK  196  A    between atoms: _433  and  _436
REMARK  197  A    between atoms: _436  and  _437
REMARK  198  A    between atoms: _437  and  _438
REMARK  199  A    between atoms: _441  and  _443
REMARK  200  A    between atoms: _443  and  _444
REMARK  201  A    between atoms: _443  and  _446
REMARK  202  A    between atoms: _446  and  _447
REMARK  203  A    between atoms: _450  and  _452
REMARK  204  A    between atoms: _452  and  _453
REMARK  205  A    between atoms: _452  and  _455
REMARK  206  A    between atoms: _455  and  _456
REMARK  207  A    between atoms: _458  and  _460
REMARK  208  A    between atoms: _460  and  _461
REMARK  209  A    between atoms: _460  and  _463
REMARK  210  A    between atoms: _463  and  _464
REMARK  211  A    between atoms: _467  and  _469
REMARK  212  A    between atoms: _469  and  _470
REMARK  213  A    between atoms: _469  and  _472
REMARK  214  A    between atoms: _472  and  _473
REMARK  215  A    between atoms: _476  and  _478
REMARK  216  A    between atoms: _478  and  _479
REMARK  217  A    between atoms: _478  and  _481
REMARK  218  A    between atoms: _481  and  _482
REMARK  219  A    between atoms: _482  and  _483
REMARK  220  A    between atoms: _486  and  _488
REMARK  221  A    between atoms: _488  and  _489
REMARK  222  A    between atoms: _491  and  _493
REMARK  223  A    between atoms: _493  and  _494
REMARK  224  A    between atoms: _493  and  _496
REMARK  225  A    between atoms: _496  and  _497
REMARK  226  A    between atoms: _500  and  _502
REMARK  227  A    between atoms: _502  and  _503
REMARK  228  A    between atoms: _502  and  _505
REMARK  229  A    between atoms: _505  and  _506
REMARK  230  A    between atoms: _509  and  _511
REMARK  231  A    between atoms: _511  and  _512
REMARK  232  A    between atoms: _511  and  _514
REMARK  233  A    between atoms: _514  and  _515
REMARK  234  A    between atoms: _518  and  _520
REMARK  235  A    between atoms: _520  and  _521
REMARK  236  A    between atoms: _520  and  _523
REMARK  237  A    between atoms: _523  and  _524
REMARK  238  A    between atoms: _527  and  _529
REMARK  239  A    between atoms: _529  and  _530
REMARK  240  A    between atoms: _529  and  _532
REMARK  241  A    between atoms: _532  and  _533
REMARK  242  A    between atoms: _533  and  _534
REMARK  243  A    between atoms: _534  and  _535
REMARK  244  A    between atoms: _535  and  _536
REMARK  245  A    between atoms: _540  and  _542
REMARK  246  A    between atoms: _542  and  _543
REMARK  247  A    between atoms: _542  and  _545
REMARK  248  A    between atoms: _545  and  _546
REMARK  249  A    between atoms: _551  and  _553
REMARK  250  A    between atoms: _553  and  _554
REMARK  251  A    between atoms: _553  and  _556
REMARK  252  A    between atoms: _556  and  _557
REMARK  253  A    between atoms: _560  and  _562
REMARK  254  A    between atoms: _562  and  _563
REMARK  255  A    between atoms: _566  and  _568
REMARK  256  A    between atoms: _568  and  _569
REMARK  257  A    between atoms: _568  and  _571
REMARK  258  A    between atoms: _571  and  _572
REMARK  259  A    between atoms: _575  and  _577
REMARK  260  A    between atoms: _577  and  _578
REMARK  261  A    between atoms: _581  and  _583
REMARK  262  A    between atoms: _583  and  _584
REMARK  263  A    between atoms: _583  and  _586
REMARK  264  A    between atoms: _589  and  _591
REMARK  265  A    between atoms: _591  and  _592
REMARK  266  A    between atoms: _594  and  _596
REMARK  267  A    between atoms: _596  and  _597
REMARK  268  A    between atoms: _600  and  _602
REMARK  269  A    between atoms: _602  and  _603
REMARK  270  A    between atoms: _602  and  _605
REMARK  271  A    between atoms: _605  and  _606
REMARK                            x       y       z     vdW  Elec       q    Type
REMARK                         _______ _______ _______ _____ _____    ______ ____
ROOT
ATOM      1  C   ASP A   2     -12.697  16.283 -17.308  0.00  0.00    +0.241 C 
ATOM      2  O   ASP A   2     -13.732  15.760 -16.893  0.00  0.00    -0.273 OA
ATOM      3  N   VAL A   3     -12.407  17.571 -17.120  0.00  0.00    -0.297 N 
ATOM      4  H   VAL A   3     -11.476  17.922 -17.423  0.00  0.00    +0.150 HD
ENDROOT
BRANCH   1   5
ATOM      5  CA  ASP A   2     -11.668  15.461 -18.076  0.00  0.00    +0.160 C 
BRANCH   5   7
ATOM      6  C   GLY A   1     -11.086  13.085 -18.339  0.00  0.00    +0.240 C 
ATOM      7  N   ASP A   2     -11.939  14.028 -17.937  0.00  0.00    -0.297 N 
ATOM      8  H   ASP A   2     -12.838  13.733 -17.505  0.00  0.00    +0.150 HD
ATOM      9  O   GLY A   1     -10.040  13.324 -18.945  0.00  0.00    -0.274 OA
BRANCH   6  10
ATOM     10  CA  GLY A   1     -11.478  11.655 -18.022  0.00  0.00    +0.169 C 
BRANCH  10  11
ATOM     11  N   GLY A   1     -11.443  10.784 -19.194  0.00  0.00    -0.236 NA
ATOM     12  H   GLY A   1     -10.522  10.511 -19.593  0.00  0.00    +0.142 HD
ENDBRANCH  10  11
ENDBRANCH   6  10
ENDBRANCH   5   7
BRANCH   5  13
ATOM     13  CB  ASP A   2     -11.665  15.875 -19.553  0.00  0.00    +0.143 C 
BRANCH  13  14
ATOM     14  CG  ASP A   2     -10.782  17.085 -19.828  0.00  0.00    +0.367 C 
ATOM     15  OD2 ASP A   2     -10.229  17.695 -18.884  0.00  0.00    -0.246 OA
ATOM     16  OD1 ASP A   2     -10.637  17.432 -21.011  0.00  0.00    -0.246 OA
ENDBRANCH  13  14
ENDBRANCH   5  13
ENDBRANCH   1   5
BRANCH   3  17
ATOM     17  CA  VAL A   3     -13.347  18.514 -16.504  0.00  0.00    +0.149 C 
BRANCH  17  18
ATOM     18  C   VAL A   3     -14.767  18.243 -16.998  0.00  0.00    +0.241 C 
ATOM     19  O   VAL A   3     -15.674  17.979 -16.207  0.00  0.00    -0.273 OA
ATOM     20  N   ILE A   4     -14.946  18.315 -18.313  0.00  0.00    -0.298 N 
ATOM     21  H   ILE A   4     -14.159  18.645 -18.907  0.00  0.00    +0.150 HD
BRANCH  20  22
ATOM     22  CA  ILE A   4     -16.200  17.951 -18.954  0.00  0.00    +0.137 C 
BRANCH  22  23
ATOM     23  CB  ILE A   4     -16.856  19.155 -19.663  0.00  0.00    +0.026 C 
ATOM     24  CG2 ILE A   4     -18.235  18.760 -20.219  0.00  0.00    +0.002 C 
BRANCH  23  25
ATOM     25  CG1 ILE A   4     -16.979  20.340 -18.695  0.00  0.00    +0.002 C 
ATOM     26  CD1 ILE A   4     -17.114  21.693 -19.371  0.00  0.00    +0.000 C 
ENDBRANCH  23  25
ENDBRANCH  22  23
BRANCH  22  27
ATOM     27  C   ILE A   4     -15.875  16.836 -19.943  0.00  0.00    +0.227 C 
ATOM     28  O   ILE A   4     -15.313  17.085 -21.018  0.00  0.00    -0.286 OA
ENDBRANCH  22  27
ENDBRANCH  20  22
ENDBRANCH  17  18
BRANCH  17  29
ATOM     29  CB  VAL A   3     -12.961  19.984 -16.817  0.00  0.00    +0.027 C 
ATOM     30  CG2 VAL A   3     -13.831  20.948 -16.029  0.00  0.00    +0.002 C 
ATOM     31  CG1 VAL A   3     -11.499  20.228 -16.521  0.00  0.00    +0.002 C 
ENDBRANCH  17  29
ENDBRANCH   3  17
TORSDOF 13
REMARK  Name = ../refined-set-2016/2hf8/2hf8_pocket.pdb
REMARK  271 active torsions:
REMARK  status: ('A' for Active; 'I' for Inactive)
REMARK    1  A    between atoms: _1  and  _3
REMARK    2  A    between atoms: _3  and  _4
REMARK    3  A    between atoms: _3  and  _6
REMARK    4  A    between atoms: _6  and  _7
REMARK    5  A    between atoms: _13  and  _15
REMARK    6  A    between atoms: _15  and  _16
REMARK    7  A    between atoms: _15  and  _18
REMARK    8  A    between atoms: _18  and  _19
REMARK    9  A    between atoms: _19  and  _20
REMARK   10  A    between atoms: _22  and  _24
REMARK   11  A    between atoms: _24  and  _25
REMARK   12  A    between atoms: _27  and  _29
REMARK   13  A    between atoms: _29  and  _30
REMARK   14  A    between atoms: _33  and  _35
REMARK   15  A    between atoms: _35  and  _36
REMARK   16  A    between atoms: _35  and  _38
REMARK   17  A    between atoms: _38  and  _39
REMARK   18  A    between atoms: _42  and  _44
REMARK   19  A    between atoms: _44  and  _45
REMARK   20  A    between atoms: _47  and  _49
REMARK   21  A    between atoms: _49  and  _50
REMARK   22  A    between atoms: _49  and  _52
REMARK   23  A    between atoms: _52  and  _53
REMARK   24  A    between atoms: _55  and  _57
REMARK   25  A    between atoms: _57  and  _58
REMARK   26  A    between atoms: _60  and  _62
REMARK   27  A    between atoms: _62  and  _63
REMARK   28  A    between atoms: _62  and  _65
REMARK   29  A    between atoms: _65  and  _66
REMARK   30  A    between atoms: _66  and  _67
REMARK   31  A    between atoms: _67  and  _68
REMARK   32  A    between atoms: _68  and  _69
REMARK   33  A    between atoms: _73  and  _75
REMARK   34  A    between atoms: _75  and  _76
REMARK   35  A    between atoms: _75  and  _78
REMARK   36  A    between atoms: _78  and  _79
REMARK   37  A    between atoms: _82  and  _84
REMARK   38  A    between atoms: _84  and  _85
REMARK   39  A    between atoms: _84  and  _87
REMARK   40  A    between atoms: _87  and  _88
REMARK   41  A    between atoms: _91  and  _93
REMARK   42  A    between atoms: _93  and  _94
REMARK   43  A    between atoms: _93  and  _96
REMARK   44  A    between atoms: _96  and  _97
REMARK   45  A    between atoms: _100  and  _102
REMARK   46  A    between atoms: _102  and  _103
REMARK   47  A    between atoms: _102  and  _105
REMARK   48  A    between atoms: _105  and  _106
REMARK   49  A    between atoms: _109  and  _111
REMARK   50  A    between atoms: _111  and  _112
REMARK   51  A    between atoms: _111  and  _114
REMARK   52  A    between atoms: _114  and  _115
REMARK   53  A    between atoms: _115  and  _116
REMARK   54  A    between atoms: _119  and  _121
REMARK   55  A    between atoms: _121  and  _122
REMARK   56  A    between atoms: _121  and  _124
REMARK   57  A    between atoms: _124  and  _125
REMARK   58  A    between atoms: _125  and  _126
REMARK   59  A    between atoms: _126  and  _127
REMARK   60  A    between atoms: _127  and  _128
REMARK   61  A    between atoms: _132  and  _134
REMARK   62  A    between atoms: _134  and  _135
REMARK   63  A    between atoms: _137  and  _139
REMARK   64  A    between atoms: _139  and  _140
REMARK   65  A    between atoms: _139  and  _142
REMARK   66  A    between atoms: _142  and  _143
REMARK   67  A    between atoms: _146  and  _148
REMARK   68  A    between atoms: _148  and  _149
REMARK   69  A    between atoms: _148  and  _151
REMARK   70  A    between atoms: _154  and  _156
REMARK   71  A    between atoms: _156  and  _157
REMARK   72  A    between atoms: _156  and  _159
REMARK   73  A    between atoms: _159  and  _160
REMARK   74  A    between atoms: _163  and  _165
REMARK   75  A    between atoms: _165  and  _166
REMARK   76  A    between atoms: _165  and  _168
REMARK   77  A    between atoms: _168  and  _169
REMARK   78  A    between atoms: _175  and  _177
REMARK   79  A    between atoms: _177  and  _178
REMARK   80  A    between atoms: _177  and  _180
REMARK   81  A    between atoms: _180  and  _181
REMARK   82  A    between atoms: _181  and  _183
REMARK   83  A    between atoms: _183  and  MG_609
REMARK   84  A    between atoms: _184  and  _186
REMARK   85  A    between atoms: _186  and  _187
REMARK   86  A    between atoms: _186  and  _189
REMARK   87  A    between atoms: _189  and  _190
REMARK   88  A    between atoms: _190  and  _191
REMARK   89  A    between atoms: _191  and  _192
REMARK   90  A    between atoms: _201  and  _203
REMARK   91  A    between atoms: _203  and  _204
REMARK   92  A    between atoms: _203  and  _206
REMARK   93  A    between atoms: _206  and  _207
REMARK   94  A    between atoms: _207  and  _208
REMARK   95  A    between atoms: _210  and  _212
REMARK   96  A    between atoms: _212  and  _213
REMARK   97  A    between atoms: _212  and  _215
REMARK   98  A    between atoms: _215  and  _216
REMARK   99  A    between atoms: _216  and  _217
REMARK  100  A    between atoms: _220  and  _222
REMARK  101  A    between atoms: _222  and  _223
REMARK  102  A    between atoms: _222  and  _225
REMARK  103  A    between atoms: _225  and  _226
REMARK  104  A    between atoms: _231  and  _233
REMARK  105  A    between atoms: _233  and  _234
REMARK  106  A    between atoms: _233  and  _236
REMARK  107  A    between atoms: _239  and  _241
REMARK  108  A    between atoms: _241  and  _242
REMARK  109  A    between atoms: _244  and  _246
REMARK  110  A    between atoms: _246  and  _247
REMARK  111  A    between atoms: _246  and  _249
REMARK  112  A    between atoms: _249  and  _250
REMARK  113  A    between atoms: _255  and  _257
REMARK  114  A    between atoms: _257  and  _258
REMARK  115  A    between atoms: _257  and  _260
REMARK  116  A    between atoms: _263  and  _265
REMARK  117  A    between atoms: _265  and  _266
REMARK  118  A    between atoms: _265  and  _268
REMARK  119  A    between atoms: _268  and  _269
REMARK  120  A    between atoms: _272  and  _274
REMARK  121  A    between atoms: _274  and  _275
REMARK  122  A    between atoms: _274  and  _277
REMARK  123  A    between atoms: _277  and  _278
REMARK  124  A    between atoms: _280  and  _282
REMARK  125  A    between atoms: _282  and  _283
REMARK  126  A    between atoms: _282  and  _285
REMARK  127  A    between atoms: _285  and  _286
REMARK  128  A    between atoms: _289  and  _291
REMARK  129  A    between atoms: _291  and  _292
REMARK  130  A    between atoms: _291  and  _294
REMARK  131  A    between atoms: _294  and  _295
REMARK  132  A    between atoms: _298  and  _300
REMARK  133  A    between atoms: _300  and  _301
REMARK  134  A    between atoms: _300  and  _303
REMARK  135  A    between atoms: _303  and  _304
REMARK  136  A    between atoms: _304  and  _305
REMARK  137  A    between atoms: _308  and  _310
REMARK  138  A    between atoms: _310  and  _311
REMARK  139  A    between atoms: _310  and  _313
REMARK  140  A    between atoms: _313  and  _314
REMARK  141  A    between atoms: _317  and  _319
REMARK  142  A    between atoms: _319  and  _320
REMARK  143  A    between atoms: _319  and  _322
REMARK  144  A    between atoms: _322  and  _323
REMARK  145  A    between atoms: _328  and  _330
REMARK  146  A    between atoms: _330  and  _331
REMARK  147  A    between atoms: _330  and  _333
REMARK  148  A    between atoms: _333  and  _334
REMARK  149  A    between atoms: _334  and  _335
REMARK  150  A    between atoms: _335  and  _336
REMARK  151  A    between atoms: _336  and  _337
REMARK  152  A    between atoms: _341  and  _343
REMARK  153  A    between atoms: _343  and  _344
REMARK  154  A    between atoms: _343  and  _346
REMARK  155  A    between atoms: _346  and  _347
REMARK  156  A    between atoms: _350  and  _352
REMARK  157  A    between atoms: _352  and  _353
REMARK  158  A    between atoms: _352  and  _355
REMARK  159  A    between atoms: _355  and  _356
REMARK  160  A    between atoms: _359  and  _361
REMARK  161  A    between atoms: _361  and  _362
REMARK  162  A    between atoms: _361  and  _364
REMARK  163  A    between atoms: _364  and  _365
REMARK  164  A    between atoms: _368  and  _370
REMARK  165  A    between atoms: _370  and  _371
REMARK  166  A    between atoms: _374  and  _376
REMARK  167  A    between atoms: _376  and  _377
REMARK  168  A    between atoms: _376  and  _379
REMARK  169  A    between atoms: _379  and  _380
REMARK  170  A    between atoms: _383  and  _385
REMARK  171  A    between atoms: _385  and  _386
REMARK  172  A    between atoms: _385  and  _388
REMARK  173  A    between atoms: _388  and  _389
REMARK  174  A    between atoms: _391  and  _393
REMARK  175  A    between atoms: _393  and  _394
REMARK  176  A    between atoms: _393  and  _396
REMARK  177  A    between atoms: _396  and  _397
REMARK  178  A    between atoms: _400  and  _402
REMARK  179  A    between atoms: _402  and  _403
REMARK  180  A    between atoms: _402  and  _405
REMARK  181  A    between atoms: _405  and  _406
REMARK  182  A    between atoms: _406  and  _407
REMARK  183  A    between atoms: _407  and  _408
REMARK  184  A    between atoms: _408  and  _409
REMARK  185  A    between atoms: _413  and  _415
REMARK  186  A    between atoms: _415  and  _416
REMARK  187  A    between atoms: _415  and  _418
REMARK  188  A    between atoms: _418  and  _419
REMARK  189  A    between atoms: _422  and  _424
REMARK  190  A    between atoms: _424  and  _425
REMARK  191  A    between atoms: _424  and  _427
REMARK  192  A    between atoms: _427  and  _428
REMARK  193  A    between atoms: _428  and  _429
REMARK  194  A    between atoms: _431  and  _433
REMARK  195  A    between atoms: _433  and  _434
REMARK  196  A    between atoms: _433  and  _436
REMARK  197  A    between atoms: _436  and  _437
REMARK  198  A    between atoms: _437  and  _438
REMARK  199  A    between atoms: _441  and  _443
REMARK  200  A    between atoms: _443  and  _444
REMARK  201  A    between atoms: _443  and  _446
REMARK  202  A    between atoms: _446  and  _447
REMARK  203  A    between atoms: _450  and  _452
REMARK  204  A    between atoms: _452  and  _453
REMARK  205  A    between atoms: _452  and  _455
REMARK  206  A    between atoms: _455  and  _456
REMARK  207  A    between atoms: _458  and  _460
REMARK  208  A    between atoms: _460  and  _461
REMARK  209  A    between atoms: _460  and  _463
REMARK  210  A    between atoms: _463  and  _464
REMARK  211  A    between atoms: _467  and  _469
REMARK  212  A    between atoms: _469  and  _470
REMARK  213  A    between atoms: _469  and  _472
REMARK  214  A    between atoms: _472  and  _473
REMARK  215  A    between atoms: _476  and  _478
REMARK  216  A    between atoms: _478  and  _479
REMARK  217  A    between atoms: _478  and  _481
REMARK  218  A    between atoms: _481  and  _482
REMARK  219  A    between atoms: _482  and  _483
REMARK  220  A    between atoms: _486  and  _488
REMARK  221  A    between atoms: _488  and  _489
REMARK  222  A    between atoms: _491  and  _493
REMARK  223  A    between atoms: _493  and  _494
REMARK  224  A    between atoms: _493  and  _496
REMARK  225  A    between atoms: _496  and  _497
REMARK  226  A    between atoms: _500  and  _502
REMARK  227  A    between atoms: _502  and  _503
REMARK  228  A    between atoms: _502  and  _505
REMARK  229  A    between atoms: _505  and  _506
REMARK  230  A    between atoms: _509  and  _511
REMARK  231  A    between atoms: _511  and  _512
REMARK  232  A    between atoms: _511  and  _514
REMARK  233  A    between atoms: _514  and  _515
REMARK  234  A    between atoms: _518  and  _520
REMARK  235  A    between atoms: _520  and  _521
REMARK  236  A    between atoms: _520  and  _523
REMARK  237  A    between atoms: _523  and  _524
REMARK  238  A    between atoms: _527  and  _529
REMARK  239  A    between atoms: _529  and  _530
REMARK  240  A    between atoms: _529  and  _532
REMARK  241  A    between atoms: _532  and  _533
REMARK  242  A    between atoms: _533  and  _534
REMARK  243  A    between atoms: _534  and  _535
REMARK  244  A    between atoms: _535  and  _536
REMARK  245  A    between atoms: _540  and  _542
REMARK  246  A    between atoms: _542  and  _543
REMARK  247  A    between atoms: _542  and  _545
REMARK  248  A    between atoms: _545  and  _546
REMARK  249  A    between atoms: _551  and  _553
REMARK  250  A    between atoms: _553  and  _554
REMARK  251  A    between atoms: _553  and  _556
REMARK  252  A    between atoms: _556  and  _557
REMARK  253  A    between atoms: _560  and  _562
REMARK  254  A    between atoms: _562  and  _563
REMARK  255  A    between atoms: _566  and  _568
REMARK  256  A    between atoms: _568  and  _569
REMARK  257  A    between atoms: _568  and  _571
REMARK  258  A    between atoms: _571  and  _572
REMARK  259  A    between atoms: _575  and  _577
REMARK  260  A    between atoms: _577  and  _578
REMARK  261  A    between atoms: _581  and  _583
REMARK  262  A    between atoms: _583  and  _584
REMARK  263  A    between atoms: _583  and  _586
REMARK  264  A    between atoms: _589  and  _591
REMARK  265  A    between atoms: _591  and  _592
REMARK  266  A    between atoms: _594  and  _596
REMARK  267  A    between atoms: _596  and  _597
REMARK  268  A    between atoms: _600  and  _602
REMARK  269  A    between atoms: _602  and  _603
REMARK  270  A    between atoms: _602  and  _605
REMARK  271  A    between atoms: _605  and  _606
REMARK                            x       y       z     vdW  Elec       q    Type
REMARK                         _______ _______ _______ _____ _____    ______ ____
ROOT
ATOM      1  C   PHE A   1     -15.543  15.051 -26.280  0.00  0.00    +0.000 C 
ATOM      2  N   UNK A   2     -14.680  14.463 -25.462  0.00  0.00    +0.000 N 
ATOM      3  H   UNK A   2     -14.603  14.791 -24.478  0.00  0.00    +0.000 HD
ATOM      4  O   PHE A   1     -15.696  14.708 -27.458  0.00  0.00    +0.000 OA
ENDROOT
BRANCH   1   5
ATOM      5  CA  PHE A   1     -16.357  16.190 -25.673  0.00  0.00    +0.000 C 
BRANCH   5   6
ATOM      6  N   PHE A   1     -16.997  15.819 -24.398  0.00  0.00    +0.000 NA
ATOM      7  H   PHE A   1     -16.826  16.406 -23.557  0.00  0.00    +0.000 HD
ENDBRANCH   5   6
BRANCH   5   8
ATOM      8  CB  PHE A   1     -15.484  17.445 -25.512  0.00  0.00    +0.000 C 
BRANCH   8   9
ATOM      9  CG  PHE A   1     -16.251  18.657 -25.070  0.00  0.00    +0.000 A 
ATOM     10  CD2 PHE A   1     -16.197  19.084 -23.750  0.00  0.00    +0.000 A 
ATOM     11  CE2 PHE A   1     -16.913  20.201 -23.334  0.00  0.00    +0.000 A 
ATOM     12  CZ  PHE A   1     -17.709  20.885 -24.236  0.00  0.00    +0.000 A 
ATOM     13  CE1 PHE A   1     -17.781  20.462 -25.555  0.00  0.00    +0.000 A 
ATOM     14  CD1 PHE A   1     -17.054  19.353 -25.968  0.00  0.00    +0.000 A 
ENDBRANCH   8   9
ENDBRANCH   5   8
ENDBRANCH   1   5
BRANCH   2  15
ATOM     15  C   UNK A   2     -13.841  13.369 -25.917  0.00  0.00    +0.000 C 
BRANCH  15  16
ATOM     16  C   UNK A   2     -14.572  12.039 -25.906  0.00  0.00    +0.000 C 
ATOM     17  O   UNK A   2     -14.294  11.187 -26.745  0.00  0.00    +0.000 OA
ENDBRANCH  15  16
BRANCH  15  18
ATOM     18  C   UNK A   2     -12.560  13.310 -25.097  0.00  0.00    +0.000 C 
BRANCH  18  19
ATOM     19  C   UNK A   2     -11.638  14.476 -25.394  0.00  0.00    +0.000 C 
ATOM     20  O   UNK A   2     -11.964  15.298 -26.281  0.00  0.00    +0.000 OA
BRANCH  19  21
ATOM     21  O   UNK A   2     -10.572  14.566 -24.755  0.00  0.00    +0.000 OA
BRANCH  21  22
ATOM     22 MG   UNK A   2      -8.682  14.701 -25.406  0.00  0.00    +0.000 Mg
ATOM     23  O   UNK A   2      -9.448  16.011 -26.782  0.00  0.00    +0.000 OA
ENDBRANCH  21  22
ENDBRANCH  19  21
ENDBRANCH  18  19
ENDBRANCH  15  18
ENDBRANCH   2  15
TORSDOF 10
REMARK  Name = ../refined-set-2016/2hf8/2hf8_pocket.pdb
REMARK  271 active torsions:
REMARK  status: ('A' for Active; 'I' for Inactive)
REMARK    1  A    between atoms: _1  and  _3
REMARK    2  A    between atoms: _3  and  _4
REMARK    3  A    between atoms: _3  and  _6
REMARK    4  A    between atoms: _6  and  _7
REMARK    5  A    between atoms: _13  and  _15
REMARK    6  A    between atoms: _15  and  _16
REMARK    7  A    between atoms: _15  and  _18
REMARK    8  A    between atoms: _18  and  _19
REMARK    9  A    between atoms: _19  and  _20
REMARK   10  A    between atoms: _22  and  _24
REMARK   11  A    between atoms: _24  and  _25
REMARK   12  A    between atoms: _27  and  _29
REMARK   13  A    between atoms: _29  and  _30
REMARK   14  A    between atoms: _33  and  _35
REMARK   15  A    between atoms: _35  and  _36
REMARK   16  A    between atoms: _35  and  _38
REMARK   17  A    between atoms: _38  and  _39
REMARK   18  A    between atoms: _42  and  _44
REMARK   19  A    between atoms: _44  and  _45
REMARK   20  A    between atoms: _47  and  _49
REMARK   21  A    between atoms: _49  and  _50
REMARK   22  A    between atoms: _49  and  _52
REMARK   23  A    between atoms: _52  and  _53
REMARK   24  A    between atoms: _55  and  _57
REMARK   25  A    between atoms: _57  and  _58
REMARK   26  A    between atoms: _60  and  _62
REMARK   27  A    between atoms: _62  and  _63
REMARK   28  A    between atoms: _62  and  _65
REMARK   29  A    between atoms: _65  and  _66
REMARK   30  A    between atoms: _66  and  _67
REMARK   31  A    between atoms: _67  and  _68
REMARK   32  A    between atoms: _68  and  _69
REMARK   33  A    between atoms: _73  and  _75
REMARK   34  A    between atoms: _75  and  _76
REMARK   35  A    between atoms: _75  and  _78
REMARK   36  A    between atoms: _78  and  _79
REMARK   37  A    between atoms: _82  and  _84
REMARK   38  A    between atoms: _84  and  _85
REMARK   39  A    between atoms: _84  and  _87
REMARK   40  A    between atoms: _87  and  _88
REMARK   41  A    between atoms: _91  and  _93
REMARK   42  A    between atoms: _93  and  _94
REMARK   43  A    between atoms: _93  and  _96
REMARK   44  A    between atoms: _96  and  _97
REMARK   45  A    between atoms: _100  and  _102
REMARK   46  A    between atoms: _102  and  _103
REMARK   47  A    between atoms: _102  and  _105
REMARK   48  A    between atoms: _105  and  _106
REMARK   49  A    between atoms: _109  and  _111
REMARK   50  A    between atoms: _111  and  _112
REMARK   51  A    between atoms: _111  and  _114
REMARK   52  A    between atoms: _114  and  _115
REMARK   53  A    between atoms: _115  and  _116
REMARK   54  A    between atoms: _119  and  _121
REMARK   55  A    between atoms: _121  and  _122
REMARK   56  A    between atoms: _121  and  _124
REMARK   57  A    between atoms: _124  and  _125
REMARK   58  A    between atoms: _125  and  _126
REMARK   59  A    between atoms: _126  and  _127
REMARK   60  A    between atoms: _127  and  _128
REMARK   61  A    between atoms: _132  and  _134
REMARK   62  A    between atoms: _134  and  _135
REMARK   63  A    between atoms: _137  and  _139
REMARK   64  A    between atoms: _139  and  _140
REMARK   65  A    between atoms: _139  and  _142
REMARK   66  A    between atoms: _142  and  _143
REMARK   67  A    between atoms: _146  and  _148
REMARK   68  A    between atoms: _148  and  _149
REMARK   69  A    between atoms: _148  and  _151
REMARK   70  A    between atoms: _154  and  _156
REMARK   71  A    between atoms: _156  and  _157
REMARK   72  A    between atoms: _156  and  _159
REMARK   73  A    between atoms: _159  and  _160
REMARK   74  A    between atoms: _163  and  _165
REMARK   75  A    between atoms: _165  and  _166
REMARK   76  A    between atoms: _165  and  _168
REMARK   77  A    between atoms: _168  and  _169
REMARK   78  A    between atoms: _175  and  _177
REMARK   79  A    between atoms: _177  and  _178
REMARK   80  A    between atoms: _177  and  _180
REMARK   81  A    between atoms: _180  and  _181
REMARK   82  A    between atoms: _181  and  _183
REMARK   83  A    between atoms: _183  and  MG_609
REMARK   84  A    between atoms: _184  and  _186
REMARK   85  A    between atoms: _186  and  _187
REMARK   86  A    between atoms: _186  and  _189
REMARK   87  A    between atoms: _189  and  _190
REMARK   88  A    between atoms: _190  and  _191
REMARK   89  A    between atoms: _191  and  _192
REMARK   90  A    between atoms: _201  and  _203
REMARK   91  A    between atoms: _203  and  _204
REMARK   92  A    between atoms: _203  and  _206
REMARK   93  A    between atoms: _206  and  _207
REMARK   94  A    between atoms: _207  and  _208
REMARK   95  A    between atoms: _210  and  _212
REMARK   96  A    between atoms: _212  and  _213
REMARK   97  A    between atoms: _212  and  _215
REMARK   98  A    between atoms: _215  and  _216
REMARK   99  A    between atoms: _216  and  _217
REMARK  100  A    between atoms: _220  and  _222
REMARK  101  A    between atoms: _222  and  _223
REMARK  102  A    between atoms: _222  and  _225
REMARK  103  A    between atoms: _225  and  _226
REMARK  104  A    between atoms: _231  and  _233
REMARK  105  A    between atoms: _233  and  _234
REMARK  106  A    between atoms: _233  and  _236
REMARK  107  A    between atoms: _239  and  _241
REMARK  108  A    between atoms: _241  and  _242
REMARK  109  A    between atoms: _244  and  _246
REMARK  110  A    between atoms: _246  and  _247
REMARK  111  A    between atoms: _246  and  _249
REMARK  112  A    between atoms: _249  and  _250
REMARK  113  A    between atoms: _255  and  _257
REMARK  114  A    between atoms: _257  and  _258
REMARK  115  A    between atoms: _257  and  _260
REMARK  116  A    between atoms: _263  and  _265
REMARK  117  A    between atoms: _265  and  _266
REMARK  118  A    between atoms: _265  and  _268
REMARK  119  A    between atoms: _268  and  _269
REMARK  120  A    between atoms: _272  and  _274
REMARK  121  A    between atoms: _274  and  _275
REMARK  122  A    between atoms: _274  and  _277
REMARK  123  A    between atoms: _277  and  _278
REMARK  124  A    between atoms: _280  and  _282
REMARK  125  A    between atoms: _282  and  _283
REMARK  126  A    between atoms: _282  and  _285
REMARK  127  A    between atoms: _285  and  _286
REMARK  128  A    between atoms: _289  and  _291
REMARK  129  A    between atoms: _291  and  _292
REMARK  130  A    between atoms: _291  and  _294
REMARK  131  A    between atoms: _294  and  _295
REMARK  132  A    between atoms: _298  and  _300
REMARK  133  A    between atoms: _300  and  _301
REMARK  134  A    between atoms: _300  and  _303
REMARK  135  A    between atoms: _303  and  _304
REMARK  136  A    between atoms: _304  and  _305
REMARK  137  A    between atoms: _308  and  _310
REMARK  138  A    between atoms: _310  and  _311
REMARK  139  A    between atoms: _310  and  _313
REMARK  140  A    between atoms: _313  and  _314
REMARK  141  A    between atoms: _317  and  _319
REMARK  142  A    between atoms: _319  and  _320
REMARK  143  A    between atoms: _319  and  _322
REMARK  144  A    between atoms: _322  and  _323
REMARK  145  A    between atoms: _328  and  _330
REMARK  146  A    between atoms: _330  and  _331
REMARK  147  A    between atoms: _330  and  _333
REMARK  148  A    between atoms: _333  and  _334
REMARK  149  A    between atoms: _334  and  _335
REMARK  150  A    between atoms: _335  and  _336
REMARK  151  A    between atoms: _336  and  _337
REMARK  152  A    between atoms: _341  and  _343
REMARK  153  A    between atoms: _343  and  _344
REMARK  154  A    between atoms: _343  and  _346
REMARK  155  A    between atoms: _346  and  _347
REMARK  156  A    between atoms: _350  and  _352
REMARK  157  A    between atoms: _352  and  _353
REMARK  158  A    between atoms: _352  and  _355
REMARK  159  A    between atoms: _355  and  _356
REMARK  160  A    between atoms: _359  and  _361
REMARK  161  A    between atoms: _361  and  _362
REMARK  162  A    between atoms: _361  and  _364
REMARK  163  A    between atoms: _364  and  _365
REMARK  164  A    between atoms: _368  and  _370
REMARK  165  A    between atoms: _370  and  _371
REMARK  166  A    between atoms: _374  and  _376
REMARK  167  A    between atoms: _376  and  _377
REMARK  168  A    between atoms: _376  and  _379
REMARK  169  A    between atoms: _379  and  _380
REMARK  170  A    between atoms: _383  and  _385
REMARK  171  A    between atoms: _385  and  _386
REMARK  172  A    between atoms: _385  and  _388
REMARK  173  A    between atoms: _388  and  _389
REMARK  174  A    between atoms: _391  and  _393
REMARK  175  A    between atoms: _393  and  _394
REMARK  176  A    between atoms: _393  and  _396
REMARK  177  A    between atoms: _396  and  _397
REMARK  178  A    between atoms: _400  and  _402
REMARK  179  A    between atoms: _402  and  _403
REMARK  180  A    between atoms: _402  and  _405
REMARK  181  A    between atoms: _405  and  _406
REMARK  182  A    between atoms: _406  and  _407
REMARK  183  A    between atoms: _407  and  _408
REMARK  184  A    between atoms: _408  and  _409
REMARK  185  A    between atoms: _413  and  _415
REMARK  186  A    between atoms: _415  and  _416
REMARK  187  A    between atoms: _415  and  _418
REMARK  188  A    between atoms: _418  and  _419
REMARK  189  A    between atoms: _422  and  _424
REMARK  190  A    between atoms: _424  and  _425
REMARK  191  A    between atoms: _424  and  _427
REMARK  192  A    between atoms: _427  and  _428
REMARK  193  A    between atoms: _428  and  _429
REMARK  194  A    between atoms: _431  and  _433
REMARK  195  A    between atoms: _433  and  _434
REMARK  196  A    between atoms: _433  and  _436
REMARK  197  A    between atoms: _436  and  _437
REMARK  198  A    between atoms: _437  and  _438
REMARK  199  A    between atoms: _441  and  _443
REMARK  200  A    between atoms: _443  and  _444
REMARK  201  A    between atoms: _443  and  _446
REMARK  202  A    between atoms: _446  and  _447
REMARK  203  A    between atoms: _450  and  _452
REMARK  204  A    between atoms: _452  and  _453
REMARK  205  A    between atoms: _452  and  _455
REMARK  206  A    between atoms: _455  and  _456
REMARK  207  A    between atoms: _458  and  _460
REMARK  208  A    between atoms: _460  and  _461
REMARK  209  A    between atoms: _460  and  _463
REMARK  210  A    between atoms: _463  and  _464
REMARK  211  A    between atoms: _467  and  _469
REMARK  212  A    between atoms: _469  and  _470
REMARK  213  A    between atoms: _469  and  _472
REMARK  214  A    between atoms: _472  and  _473
REMARK  215  A    between atoms: _476  and  _478
REMARK  216  A    between atoms: _478  and  _479
REMARK  217  A    between atoms: _478  and  _481
REMARK  218  A    between atoms: _481  and  _482
REMARK  219  A    between atoms: _482  and  _483
REMARK  220  A    between atoms: _486  and  _488
REMARK  221  A    between atoms: _488  and  _489
REMARK  222  A    between atoms: _491  and  _493
REMARK  223  A    between atoms: _493  and  _494
REMARK  224  A    between atoms: _493  and  _496
REMARK  225  A    between atoms: _496  and  _497
REMARK  226  A    between atoms: _500  and  _502
REMARK  227  A    between atoms: _502  and  _503
REMARK  228  A    between atoms: _502  and  _505
REMARK  229  A    between atoms: _505  and  _506
REMARK  230  A    between atoms: _509  and  _511
REMARK  231  A    between atoms: _511  and  _512
REMARK  232  A    between atoms: _511  and  _514
REMARK  233  A    between atoms: _514  and  _515
REMARK  234  A    between atoms: _518  and  _520
REMARK  235  A    between atoms: _520  and  _521
REMARK  236  A    between atoms: _520  and  _523
REMARK  237  A    between atoms: _523  and  _524
REMARK  238  A    between atoms: _527  and  _529
REMARK  239  A    between atoms: _529  and  _530
REMARK  240  A    between atoms: _529  and  _532
REMARK  241  A    between atoms: _532  and  _533
REMARK  242  A    between atoms: _533  and  _534
REMARK  243  A    between atoms: _534  and  _535
REMARK  244  A    between atoms: _535  and  _536
REMARK  245  A    between atoms: _540  and  _542
REMARK  246  A    between atoms: _542  and  _543
REMARK  247  A    between atoms: _542  and  _545
REMARK  248  A    between atoms: _545  and  _546
REMARK  249  A    between atoms: _551  and  _553
REMARK  250  A    between atoms: _553  and  _554
REMARK  251  A    between atoms: _553  and  _556
REMARK  252  A    between atoms: _556  and  _557
REMARK  253  A    between atoms: _560  and  _562
REMARK  254  A    between atoms: _562  and  _563
REMARK  255  A    between atoms: _566  and  _568
REMARK  256  A    between atoms: _568  and  _569
REMARK  257  A    between atoms: _568  and  _571
REMARK  258  A    between atoms: _571  and  _572
REMARK  259  A    between atoms: _575  and  _577
REMARK  260  A    between atoms: _577  and  _578
REMARK  261  A    between atoms: _581  and  _583
REMARK  262  A    between atoms: _583  and  _584
REMARK  263  A    between atoms: _583  and  _586
REMARK  264  A    between atoms: _589  and  _591
REMARK  265  A    between atoms: _591  and  _592
REMARK  266  A    between atoms: _594  and  _596
REMARK  267  A    between atoms: _596  and  _597
REMARK  268  A    between atoms: _600  and  _602
REMARK  269  A    between atoms: _602  and  _603
REMARK  270  A    between atoms: _602  and  _605
REMARK  271  A    between atoms: _605  and  _606
REMARK                            x       y       z     vdW  Elec       q    Type
REMARK                         _______ _______ _______ _____ _____    ______ ____
ROOT
ATOM      1  CA  ARG A   1     -15.368  11.622 -30.247  0.00  0.00    +0.000 C 
ENDROOT
BRANCH   1   2
ATOM      2  C   ARG A   1     -15.022  10.135 -30.359  0.00  0.00    +0.000 C 
ATOM      3  N   UNK A   2     -14.756   9.487 -29.228  0.00  0.00    +0.000 N 
ATOM      4  H   UNK A   2     -14.814  10.001 -28.326  0.00  0.00    +0.000 HD
ATOM      5  O   ARG A   1     -15.026   9.582 -31.455  0.00  0.00    +0.000 OA
BRANCH   3   6
ATOM      6  C   UNK A   2     -14.384   8.072 -29.216  0.00  0.00    +0.000 C 
BRANCH   6   7
ATOM      7  C   UNK A   2     -15.536   7.149 -29.608  0.00  0.00    +0.000 C 
ATOM      8  O   UNK A   2     -15.326   6.146 -30.296  0.00  0.00    +0.000 OA
ENDBRANCH   6   7
BRANCH   6   9
ATOM      9  C   UNK A   2     -13.852   7.667 -27.843  0.00  0.00    +0.000 C 
BRANCH   9  10
ATOM     10  C   UNK A   2     -12.584   8.384 -27.438  0.00  0.00    +0.000 C 
BRANCH  10  11
ATOM     11 SE   UNK A   2     -12.106   7.968 -25.600  0.00  0.00    +0.000 Se
ATOM     12  C   UNK A   2     -10.847   9.403 -25.307  0.00  0.00    +0.000 C 
ENDBRANCH  10  11
ENDBRANCH   9  10
ENDBRANCH   6   9
ENDBRANCH   3   6
ENDBRANCH   1   2
BRANCH   1  13
ATOM     13  N   ARG A   1     -16.347  11.897 -29.190  0.00  0.00    +0.000 NA
ATOM     14  H   ARG A   1     -16.088  12.539 -28.414  0.00  0.00    +0.000 HD
ENDBRANCH   1  13
BRANCH   1  15
ATOM     15  CB  ARG A   1     -14.110  12.482 -30.082  0.00  0.00    +0.000 C 
BRANCH  15  16
ATOM     16  CG  ARG A   1     -14.250  13.863 -30.717  0.00  0.00    +0.000 C 
BRANCH  16  17
ATOM     17  CD  ARG A   1     -13.078  14.784 -30.402  0.00  0.00    +0.000 C 
BRANCH  17  18
ATOM     18  NE  ARG A   1     -11.829  14.347 -31.022  0.00  0.00    +0.330 N 
ATOM     19  CZ  ARG A   1     -10.648  14.937 -30.841  0.00  0.00    +0.000 C 
ATOM     20  NH2 ARG A   1     -10.544  16.000 -30.057  0.00  0.00    +0.330 N 
ATOM     21 HH21 ARG A   1     -11.387  16.378 -29.579  0.00  0.00    +0.000 HD
ATOM     22 HH22 ARG A   1      -9.620  16.456 -29.920  0.00  0.00    +0.000 HD
ATOM     23  NH1 ARG A   1      -9.567  14.453 -31.439  0.00  0.00    +0.330 N 
ATOM     24 HH11 ARG A   1      -8.645  14.913 -31.298  0.00  0.00    +0.000 HD
ATOM     25 HH12 ARG A   1      -9.642  13.614 -32.049  0.00  0.00    +0.000 HD
ATOM     26  HE  ARG A   1     -11.864  13.517 -31.648  0.00  0.00    +0.000 HD
ENDBRANCH  17  18
ENDBRANCH  16  17
ENDBRANCH  15  16
ENDBRANCH   1  15
TORSDOF 11
REMARK  Name = ../refined-set-2016/2hf8/2hf8_pocket.pdb
REMARK  271 active torsions:
REMARK  status: ('A' for Active; 'I' for Inactive)
REMARK    1  A    between atoms: _1  and  _3
REMARK    2  A    between atoms: _3  and  _4
REMARK    3  A    between atoms: _3  and  _6
REMARK    4  A    between atoms: _6  and  _7
REMARK    5  A    between atoms: _13  and  _15
REMARK    6  A    between atoms: _15  and  _16
REMARK    7  A    between atoms: _15  and  _18
REMARK    8  A    between atoms: _18  and  _19
REMARK    9  A    between atoms: _19  and  _20
REMARK   10  A    between atoms: _22  and  _24
REMARK   11  A    between atoms: _24  and  _25
REMARK   12  A    between atoms: _27  and  _29
REMARK   13  A    between atoms: _29  and  _30
REMARK   14  A    between atoms: _33  and  _35
REMARK   15  A    between atoms: _35  and  _36
REMARK   16  A    between atoms: _35  and  _38
REMARK   17  A    between atoms: _38  and  _39
REMARK   18  A    between atoms: _42  and  _44
REMARK   19  A    between atoms: _44  and  _45
REMARK   20  A    between atoms: _47  and  _49
REMARK   21  A    between atoms: _49  and  _50
REMARK   22  A    between atoms: _49  and  _52
REMARK   23  A    between atoms: _52  and  _53
REMARK   24  A    between atoms: _55  and  _57
REMARK   25  A    between atoms: _57  and  _58
REMARK   26  A    between atoms: _60  and  _62
REMARK   27  A    between atoms: _62  and  _63
REMARK   28  A    between atoms: _62  and  _65
REMARK   29  A    between atoms: _65  and  _66
REMARK   30  A    between atoms: _66  and  _67
REMARK   31  A    between atoms: _67  and  _68
REMARK   32  A    between atoms: _68  and  _69
REMARK   33  A    between atoms: _73  and  _75
REMARK   34  A    between atoms: _75  and  _76
REMARK   35  A    between atoms: _75  and  _78
REMARK   36  A    between atoms: _78  and  _79
REMARK   37  A    between atoms: _82  and  _84
REMARK   38  A    between atoms: _84  and  _85
REMARK   39  A    between atoms: _84  and  _87
REMARK   40  A    between atoms: _87  and  _88
REMARK   41  A    between atoms: _91  and  _93
REMARK   42  A    between atoms: _93  and  _94
REMARK   43  A    between atoms: _93  and  _96
REMARK   44  A    between atoms: _96  and  _97
REMARK   45  A    between atoms: _100  and  _102
REMARK   46  A    between atoms: _102  and  _103
REMARK   47  A    between atoms: _102  and  _105
REMARK   48  A    between atoms: _105  and  _106
REMARK   49  A    between atoms: _109  and  _111
REMARK   50  A    between atoms: _111  and  _112
REMARK   51  A    between atoms: _111  and  _114
REMARK   52  A    between atoms: _114  and  _115
REMARK   53  A    between atoms: _115  and  _116
REMARK   54  A    between atoms: _119  and  _121
REMARK   55  A    between atoms: _121  and  _122
REMARK   56  A    between atoms: _121  and  _124
REMARK   57  A    between atoms: _124  and  _125
REMARK   58  A    between atoms: _125  and  _126
REMARK   59  A    between atoms: _126  and  _127
REMARK   60  A    between atoms: _127  and  _128
REMARK   61  A    between atoms: _132  and  _134
REMARK   62  A    between atoms: _134  and  _135
REMARK   63  A    between atoms: _137  and  _139
REMARK   64  A    between atoms: _139  and  _140
REMARK   65  A    between atoms: _139  and  _142
REMARK   66  A    between atoms: _142  and  _143
REMARK   67  A    between atoms: _146  and  _148
REMARK   68  A    between atoms: _148  and  _149
REMARK   69  A    between atoms: _148  and  _151
REMARK   70  A    between atoms: _154  and  _156
REMARK   71  A    between atoms: _156  and  _157
REMARK   72  A    between atoms: _156  and  _159
REMARK   73  A    between atoms: _159  and  _160
REMARK   74  A    between atoms: _163  and  _165
REMARK   75  A    between atoms: _165  and  _166
REMARK   76  A    between atoms: _165  and  _168
REMARK   77  A    between atoms: _168  and  _169
REMARK   78  A    between atoms: _175  and  _177
REMARK   79  A    between atoms: _177  and  _178
REMARK   80  A    between atoms: _177  and  _180
REMARK   81  A    between atoms: _180  and  _181
REMARK   82  A    between atoms: _181  and  _183
REMARK   83  A    between atoms: _183  and  MG_609
REMARK   84  A    between atoms: _184  and  _186
REMARK   85  A    between atoms: _186  and  _187
REMARK   86  A    between atoms: _186  and  _189
REMARK   87  A    between atoms: _189  and  _190
REMARK   88  A    between atoms: _190  and  _191
REMARK   89  A    between atoms: _191  and  _192
REMARK   90  A    between atoms: _201  and  _203
REMARK   91  A    between atoms: _203  and  _204
REMARK   92  A    between atoms: _203  and  _206
REMARK   93  A    between atoms: _206  and  _207
REMARK   94  A    between atoms: _207  and  _208
REMARK   95  A    between atoms: _210  and  _212
REMARK   96  A    between atoms: _212  and  _213
REMARK   97  A    between atoms: _212  and  _215
REMARK   98  A    between atoms: _215  and  _216
REMARK   99  A    between atoms: _216  and  _217
REMARK  100  A    between atoms: _220  and  _222
REMARK  101  A    between atoms: _222  and  _223
REMARK  102  A    between atoms: _222  and  _225
REMARK  103  A    between atoms: _225  and  _226
REMARK  104  A    between atoms: _231  and  _233
REMARK  105  A    between atoms: _233  and  _234
REMARK  106  A    between atoms: _233  and  _236
REMARK  107  A    between atoms: _239  and  _241
REMARK  108  A    between atoms: _241  and  _242
REMARK  109  A    between atoms: _244  and  _246
REMARK  110  A    between atoms: _246  and  _247
REMARK  111  A    between atoms: _246  and  _249
REMARK  112  A    between atoms: _249  and  _250
REMARK  113  A    between atoms: _255  and  _257
REMARK  114  A    between atoms: _257  and  _258
REMARK  115  A    between atoms: _257  and  _260
REMARK  116  A    between atoms: _263  and  _265
REMARK  117  A    between atoms: _265  and  _266
REMARK  118  A    between atoms: _265  and  _268
REMARK  119  A    between atoms: _268  and  _269
REMARK  120  A    between atoms: _272  and  _274
REMARK  121  A    between atoms: _274  and  _275
REMARK  122  A    between atoms: _274  and  _277
REMARK  123  A    between atoms: _277  and  _278
REMARK  124  A    between atoms: _280  and  _282
REMARK  125  A    between atoms: _282  and  _283
REMARK  126  A    between atoms: _282  and  _285
REMARK  127  A    between atoms: _285  and  _286
REMARK  128  A    between atoms: _289  and  _291
REMARK  129  A    between atoms: _291  and  _292
REMARK  130  A    between atoms: _291  and  _294
REMARK  131  A    between atoms: _294  and  _295
REMARK  132  A    between atoms: _298  and  _300
REMARK  133  A    between atoms: _300  and  _301
REMARK  134  A    between atoms: _300  and  _303
REMARK  135  A    between atoms: _303  and  _304
REMARK  136  A    between atoms: _304  and  _305
REMARK  137  A    between atoms: _308  and  _310
REMARK  138  A    between atoms: _310  and  _311
REMARK  139  A    between atoms: _310  and  _313
REMARK  140  A    between atoms: _313  and  _314
REMARK  141  A    between atoms: _317  and  _319
REMARK  142  A    between atoms: _319  and  _320
REMARK  143  A    between atoms: _319  and  _322
REMARK  144  A    between atoms: _322  and  _323
REMARK  145  A    between atoms: _328  and  _330
REMARK  146  A    between atoms: _330  and  _331
REMARK  147  A    between atoms: _330  and  _333
REMARK  148  A    between atoms: _333  and  _334
REMARK  149  A    between atoms: _334  and  _335
REMARK  150  A    between atoms: _335  and  _336
REMARK  151  A    between atoms: _336  and  _337
REMARK  152  A    between atoms: _341  and  _343
REMARK  153  A    between atoms: _343  and  _344
REMARK  154  A    between atoms: _343  and  _346
REMARK  155  A    between atoms: _346  and  _347
REMARK  156  A    between atoms: _350  and  _352
REMARK  157  A    between atoms: _352  and  _353
REMARK  158  A    between atoms: _352  and  _355
REMARK  159  A    between atoms: _355  and  _356
REMARK  160  A    between atoms: _359  and  _361
REMARK  161  A    between atoms: _361  and  _362
REMARK  162  A    between atoms: _361  and  _364
REMARK  163  A    between atoms: _364  and  _365
REMARK  164  A    between atoms: _368  and  _370
REMARK  165  A    between atoms: _370  and  _371
REMARK  166  A    between atoms: _374  and  _376
REMARK  167  A    between atoms: _376  and  _377
REMARK  168  A    between atoms: _376  and  _379
REMARK  169  A    between atoms: _379  and  _380
REMARK  170  A    between atoms: _383  and  _385
REMARK  171  A    between atoms: _385  and  _386
REMARK  172  A    between atoms: _385  and  _388
REMARK  173  A    between atoms: _388  and  _389
REMARK  174  A    between atoms: _391  and  _393
REMARK  175  A    between atoms: _393  and  _394
REMARK  176  A    between atoms: _393  and  _396
REMARK  177  A    between atoms: _396  and  _397
REMARK  178  A    between atoms: _400  and  _402
REMARK  179  A    between atoms: _402  and  _403
REMARK  180  A    between atoms: _402  and  _405
REMARK  181  A    between atoms: _405  and  _406
REMARK  182  A    between atoms: _406  and  _407
REMARK  183  A    between atoms: _407  and  _408
REMARK  184  A    between atoms: _408  and  _409
REMARK  185  A    between atoms: _413  and  _415
REMARK  186  A    between atoms: _415  and  _416
REMARK  187  A    between atoms: _415  and  _418
REMARK  188  A    between atoms: _418  and  _419
REMARK  189  A    between atoms: _422  and  _424
REMARK  190  A    between atoms: _424  and  _425
REMARK  191  A    between atoms: _424  and  _427
REMARK  192  A    between atoms: _427  and  _428
REMARK  193  A    between atoms: _428  and  _429
REMARK  194  A    between atoms: _431  and  _433
REMARK  195  A    between atoms: _433  and  _434
REMARK  196  A    between atoms: _433  and  _436
REMARK  197  A    between atoms: _436  and  _437
REMARK  198  A    between atoms: _437  and  _438
REMARK  199  A    between atoms: _441  and  _443
REMARK  200  A    between atoms: _443  and  _444
REMARK  201  A    between atoms: _443  and  _446
REMARK  202  A    between atoms: _446  and  _447
REMARK  203  A    between atoms: _450  and  _452
REMARK  204  A    between atoms: _452  and  _453
REMARK  205  A    between atoms: _452  and  _455
REMARK  206  A    between atoms: _455  and  _456
REMARK  207  A    between atoms: _458  and  _460
REMARK  208  A    between atoms: _460  and  _461
REMARK  209  A    between atoms: _460  and  _463
REMARK  210  A    between atoms: _463  and  _464
REMARK  211  A    between atoms: _467  and  _469
REMARK  212  A    between atoms: _469  and  _470
REMARK  213  A    between atoms: _469  and  _472
REMARK  214  A    between atoms: _472  and  _473
REMARK  215  A    between atoms: _476  and  _478
REMARK  216  A    between atoms: _478  and  _479
REMARK  217  A    between atoms: _478  and  _481
REMARK  218  A    between atoms: _481  and  _482
REMARK  219  A    between atoms: _482  and  _483
REMARK  220  A    between atoms: _486  and  _488
REMARK  221  A    between atoms: _488  and  _489
REMARK  222  A    between atoms: _491  and  _493
REMARK  223  A    between atoms: _493  and  _494
REMARK  224  A    between atoms: _493  and  _496
REMARK  225  A    between atoms: _496  and  _497
REMARK  226  A    between atoms: _500  and  _502
REMARK  227  A    between atoms: _502  and  _503
REMARK  228  A    between atoms: _502  and  _505
REMARK  229  A    between atoms: _505  and  _506
REMARK  230  A    between atoms: _509  and  _511
REMARK  231  A    between atoms: _511  and  _512
REMARK  232  A    between atoms: _511  and  _514
REMARK  233  A    between atoms: _514  and  _515
REMARK  234  A    between atoms: _518  and  _520
REMARK  235  A    between atoms: _520  and  _521
REMARK  236  A    between atoms: _520  and  _523
REMARK  237  A    between atoms: _523  and  _524
REMARK  238  A    between atoms: _527  and  _529
REMARK  239  A    between atoms: _529  and  _530
REMARK  240  A    between atoms: _529  and  _532
REMARK  241  A    between atoms: _532  and  _533
REMARK  242  A    between atoms: _533  and  _534
REMARK  243  A    between atoms: _534  and  _535
REMARK  244  A    between atoms: _535  and  _536
REMARK  245  A    between atoms: _540  and  _542
REMARK  246  A    between atoms: _542  and  _543
REMARK  247  A    between atoms: _542  and  _545
REMARK  248  A    between atoms: _545  and  _546
REMARK  249  A    between atoms: _551  and  _553
REMARK  250  A    between atoms: _553  and  _554
REMARK  251  A    between atoms: _553  and  _556
REMARK  252  A    between atoms: _556  and  _557
REMARK  253  A    between atoms: _560  and  _562
REMARK  254  A    between atoms: _562  and  _563
REMARK  255  A    between atoms: _566  and  _568
REMARK  256  A    between atoms: _568  and  _569
REMARK  257  A    between atoms: _568  and  _571
REMARK  258  A    between atoms: _571  and  _572
REMARK  259  A    between atoms: _575  and  _577
REMARK  260  A    between atoms: _577  and  _578
REMARK  261  A    between atoms: _581  and  _583
REMARK  262  A    between atoms: _583  and  _584
REMARK  263  A    between atoms: _583  and  _586
REMARK  264  A    between atoms: _589  and  _591
REMARK  265  A    between atoms: _591  and  _592
REMARK  266  A    between atoms: _594  and  _596
REMARK  267  A    between atoms: _596  and  _597
REMARK  268  A    between atoms: _600  and  _602
REMARK  269  A    between atoms: _602  and  _603
REMARK  270  A    between atoms: _602  and  _605
REMARK  271  A    between atoms: _605  and  _606
REMARK                            x       y       z     vdW  Elec       q    Type
REMARK                         _______ _______ _______ _____ _____    ______ ____
ROOT
ATOM      1  C   ASN A   2      -6.439  12.398 -18.683  0.00  0.00    +0.241 C 
ATOM      2  N   VAL A   3      -6.540  13.160 -17.601  0.00  0.00    -0.297 N 
ATOM      3  H   VAL A   3      -6.527  12.716 -16.661  0.00  0.00    +0.150 HD
ATOM      4  O   ASN A   2      -6.553  12.848 -19.826  0.00  0.00    -0.273 OA
ENDROOT
BRANCH   2   5
ATOM      5  CA  VAL A   3      -6.670  14.616 -17.708  0.00  0.00    +0.149 C 
BRANCH   5   6
ATOM      6  C   VAL A   3      -5.413  15.214 -18.350  0.00  0.00    +0.241 C 
ATOM      7  O   VAL A   3      -4.307  14.697 -18.160  0.00  0.00    -0.273 OA
ATOM      8  N   GLY A   4      -5.590  16.287 -19.119  0.00  0.00    -0.295 N 
ATOM      9  H   GLY A   4      -6.558  16.606 -19.328  0.00  0.00    +0.150 HD
BRANCH   8  10
ATOM     10  CA  GLY A   4      -4.460  17.028 -19.677  0.00  0.00    +0.176 C 
BRANCH  10  11
ATOM     11  C   GLY A   4      -3.703  17.751 -18.577  0.00  0.00    +0.243 C 
ATOM     12  O   GLY A   4      -4.198  18.725 -18.018  0.00  0.00    -0.273 OA
ATOM     13  N   ASN A   5      -2.501  17.265 -18.278  0.00  0.00    -0.298 N 
ATOM     14  H   ASN A   5      -2.094  16.542 -18.905  0.00  0.00    +0.150 HD
BRANCH  13  15
ATOM     15  CA  ASN A   5      -1.720  17.691 -17.115  0.00  0.00    +0.146 C 
BRANCH  15  16
ATOM     16  C   ASN A   5      -0.398  16.923 -17.111  0.00  0.00    +0.227 C 
ATOM     17  O   ASN A   5      -0.395  15.687 -17.112  0.00  0.00    -0.286 OA
ENDBRANCH  15  16
BRANCH  15  18
ATOM     18  CB  ASN A   5      -2.507  17.411 -15.820  0.00  0.00    +0.112 C 
BRANCH  18  19
ATOM     19  CG  ASN A   5      -1.899  18.071 -14.584  0.00  0.00    +0.222 C 
ATOM     20  ND2 ASN A   5      -2.739  18.321 -13.587  0.00  0.00    -0.329 N 
ATOM     21 HD21 ASN A   5      -2.389  18.754 -12.708  0.00  0.00    +0.145 HD
ATOM     22 HD22 ASN A   5      -3.747  18.084 -13.684  0.00  0.00    +0.145 HD
ATOM     23  OD1 ASN A   5      -0.697  18.334 -14.515  0.00  0.00    -0.275 OA
ENDBRANCH  18  19
ENDBRANCH  15  18
ENDBRANCH  13  15
ENDBRANCH  10  11
ENDBRANCH   8  10
ENDBRANCH   5   6
BRANCH   5  24
ATOM     24  CB  VAL A   3      -6.911  15.277 -16.331  0.00  0.00    +0.027 C 
ATOM     25  CG2 VAL A   3      -5.796  14.920 -15.362  0.00  0.00    +0.002 C 
ATOM     26  CG1 VAL A   3      -8.252  14.855 -15.759  0.00  0.00    +0.002 C 
ENDBRANCH   5  24
ENDBRANCH   2   5
BRANCH   1  27
ATOM     27  CA  ASN A   2      -6.182  10.907 -18.458  0.00  0.00    +0.158 C 
BRANCH  27  30
ATOM     28  C   GLU A   1      -7.540   9.897 -20.205  0.00  0.00    +0.238 C 
ATOM     29  O   GLU A   1      -8.607  10.179 -19.660  0.00  0.00    -0.274 OA
ATOM     30  N   ASN A   2      -6.352  10.199 -19.706  0.00  0.00    -0.297 N 
ATOM     31  H   ASN A   2      -5.503   9.914 -20.236  0.00  0.00    +0.150 HD
BRANCH  28  32
ATOM     32  CA  GLU A   1      -7.496   9.147 -21.523  0.00  0.00    +0.145 C 
BRANCH  32  33
ATOM     33  N   GLU A   1      -8.020   7.800 -21.353  0.00  0.00    -0.238 NA
ATOM     34  H   GLU A   1      -9.026   7.602 -21.529  0.00  0.00    +0.142 HD
ENDBRANCH  32  33
BRANCH  32  35
ATOM     35  CB  GLU A   1      -8.197   9.941 -22.622  0.00  0.00    +0.038 C 
BRANCH  35  36
ATOM     36  CG  GLU A   1      -7.451  11.243 -22.938  0.00  0.00    +0.116 C 
BRANCH  36  37
ATOM     37  CD  GLU A   1      -8.073  12.018 -24.067  0.00  0.00    +0.365 C 
ATOM     38  OE2 GLU A   1      -7.916  13.259 -24.110  0.00  0.00    -0.246 OA
ATOM     39  OE1 GLU A   1      -8.722  11.390 -24.920  0.00  0.00    -0.246 OA
ENDBRANCH  36  37
ENDBRANCH  35  36
ENDBRANCH  32  35
ENDBRANCH  28  32
ENDBRANCH  27  30
BRANCH  27  40
ATOM     40  CB  ASN A   2      -4.757  10.666 -17.938  0.00  0.00    +0.114 C 
BRANCH  40  41
ATOM     41  CG  ASN A   2      -4.689  10.578 -16.427  0.00  0.00    +0.222 C 
ATOM     42  OD1 ASN A   2      -5.315  11.359 -15.716  0.00  0.00    -0.275 OA
ATOM     43  ND2 ASN A   2      -3.924   9.618 -15.929  0.00  0.00    -0.329 N 
ATOM     44 HD21 ASN A   2      -3.837   9.504 -14.899  0.00  0.00    +0.145 HD
ATOM     45 HD22 ASN A   2      -3.411   8.978 -16.568  0.00  0.00    +0.145 HD
ENDBRANCH  40  41
ENDBRANCH  27  40
ENDBRANCH   1  27
TORSDOF 18
REMARK  Name = ../refined-set-2016/2hf8/2hf8_pocket.pdb
REMARK  271 active torsions:
REMARK  status: ('A' for Active; 'I' for Inactive)
REMARK    1  A    between atoms: _1  and  _3
REMARK    2  A    between atoms: _3  and  _4
REMARK    3  A    between atoms: _3  and  _6
REMARK    4  A    between atoms: _6  and  _7
REMARK    5  A    between atoms: _13  and  _15
REMARK    6  A    between atoms: _15  and  _16
REMARK    7  A    between atoms: _15  and  _18
REMARK    8  A    between atoms: _18  and  _19
REMARK    9  A    between atoms: _19  and  _20
REMARK   10  A    between atoms: _22  and  _24
REMARK   11  A    between atoms: _24  and  _25
REMARK   12  A    between atoms: _27  and  _29
REMARK   13  A    between atoms: _29  and  _30
REMARK   14  A    between atoms: _33  and  _35
REMARK   15  A    between atoms: _35  and  _36
REMARK   16  A    between atoms: _35  and  _38
REMARK   17  A    between atoms: _38  and  _39
REMARK   18  A    between atoms: _42  and  _44
REMARK   19  A    between atoms: _44  and  _45
REMARK   20  A    between atoms: _47  and  _49
REMARK   21  A    between atoms: _49  and  _50
REMARK   22  A    between atoms: _49  and  _52
REMARK   23  A    between atoms: _52  and  _53
REMARK   24  A    between atoms: _55  and  _57
REMARK   25  A    between atoms: _57  and  _58
REMARK   26  A    between atoms: _60  and  _62
REMARK   27  A    between atoms: _62  and  _63
REMARK   28  A    between atoms: _62  and  _65
REMARK   29  A    between atoms: _65  and  _66
REMARK   30  A    between atoms: _66  and  _67
REMARK   31  A    between atoms: _67  and  _68
REMARK   32  A    between atoms: _68  and  _69
REMARK   33  A    between atoms: _73  and  _75
REMARK   34  A    between atoms: _75  and  _76
REMARK   35  A    between atoms: _75  and  _78
REMARK   36  A    between atoms: _78  and  _79
REMARK   37  A    between atoms: _82  and  _84
REMARK   38  A    between atoms: _84  and  _85
REMARK   39  A    between atoms: _84  and  _87
REMARK   40  A    between atoms: _87  and  _88
REMARK   41  A    between atoms: _91  and  _93
REMARK   42  A    between atoms: _93  and  _94
REMARK   43  A    between atoms: _93  and  _96
REMARK   44  A    between atoms: _96  and  _97
REMARK   45  A    between atoms: _100  and  _102
REMARK   46  A    between atoms: _102  and  _103
REMARK   47  A    between atoms: _102  and  _105
REMARK   48  A    between atoms: _105  and  _106
REMARK   49  A    between atoms: _109  and  _111
REMARK   50  A    between atoms: _111  and  _112
REMARK   51  A    between atoms: _111  and  _114
REMARK   52  A    between atoms: _114  and  _115
REMARK   53  A    between atoms: _115  and  _116
REMARK   54  A    between atoms: _119  and  _121
REMARK   55  A    between atoms: _121  and  _122
REMARK   56  A    between atoms: _121  and  _124
REMARK   57  A    between atoms: _124  and  _125
REMARK   58  A    between atoms: _125  and  _126
REMARK   59  A    between atoms: _126  and  _127
REMARK   60  A    between atoms: _127  and  _128
REMARK   61  A    between atoms: _132  and  _134
REMARK   62  A    between atoms: _134  and  _135
REMARK   63  A    between atoms: _137  and  _139
REMARK   64  A    between atoms: _139  and  _140
REMARK   65  A    between atoms: _139  and  _142
REMARK   66  A    between atoms: _142  and  _143
REMARK   67  A    between atoms: _146  and  _148
REMARK   68  A    between atoms: _148  and  _149
REMARK   69  A    between atoms: _148  and  _151
REMARK   70  A    between atoms: _154  and  _156
REMARK   71  A    between atoms: _156  and  _157
REMARK   72  A    between atoms: _156  and  _159
REMARK   73  A    between atoms: _159  and  _160
REMARK   74  A    between atoms: _163  and  _165
REMARK   75  A    between atoms: _165  and  _166
REMARK   76  A    between atoms: _165  and  _168
REMARK   77  A    between atoms: _168  and  _169
REMARK   78  A    between atoms: _175  and  _177
REMARK   79  A    between atoms: _177  and  _178
REMARK   80  A    between atoms: _177  and  _180
REMARK   81  A    between atoms: _180  and  _181
REMARK   82  A    between atoms: _181  and  _183
REMARK   83  A    between atoms: _183  and  MG_609
REMARK   84  A    between atoms: _184  and  _186
REMARK   85  A    between atoms: _186  and  _187
REMARK   86  A    between atoms: _186  and  _189
REMARK   87  A    between atoms: _189  and  _190
REMARK   88  A    between atoms: _190  and  _191
REMARK   89  A    between atoms: _191  and  _192
REMARK   90  A    between atoms: _201  and  _203
REMARK   91  A    between atoms: _203  and  _204
REMARK   92  A    between atoms: _203  and  _206
REMARK   93  A    between atoms: _206  and  _207
REMARK   94  A    between atoms: _207  and  _208
REMARK   95  A    between atoms: _210  and  _212
REMARK   96  A    between atoms: _212  and  _213
REMARK   97  A    between atoms: _212  and  _215
REMARK   98  A    between atoms: _215  and  _216
REMARK   99  A    between atoms: _216  and  _217
REMARK  100  A    between atoms: _220  and  _222
REMARK  101  A    between atoms: _222  and  _223
REMARK  102  A    between atoms: _222  and  _225
REMARK  103  A    between atoms: _225  and  _226
REMARK  104  A    between atoms: _231  and  _233
REMARK  105  A    between atoms: _233  and  _234
REMARK  106  A    between atoms: _233  and  _236
REMARK  107  A    between atoms: _239  and  _241
REMARK  108  A    between atoms: _241  and  _242
REMARK  109  A    between atoms: _244  and  _246
REMARK  110  A    between atoms: _246  and  _247
REMARK  111  A    between atoms: _246  and  _249
REMARK  112  A    between atoms: _249  and  _250
REMARK  113  A    between atoms: _255  and  _257
REMARK  114  A    between atoms: _257  and  _258
REMARK  115  A    between atoms: _257  and  _260
REMARK  116  A    between atoms: _263  and  _265
REMARK  117  A    between atoms: _265  and  _266
REMARK  118  A    between atoms: _265  and  _268
REMARK  119  A    between atoms: _268  and  _269
REMARK  120  A    between atoms: _272  and  _274
REMARK  121  A    between atoms: _274  and  _275
REMARK  122  A    between atoms: _274  and  _277
REMARK  123  A    between atoms: _277  and  _278
REMARK  124  A    between atoms: _280  and  _282
REMARK  125  A    between atoms: _282  and  _283
REMARK  126  A    between atoms: _282  and  _285
REMARK  127  A    between atoms: _285  and  _286
REMARK  128  A    between atoms: _289  and  _291
REMARK  129  A    between atoms: _291  and  _292
REMARK  130  A    between atoms: _291  and  _294
REMARK  131  A    between atoms: _294  and  _295
REMARK  132  A    between atoms: _298  and  _300
REMARK  133  A    between atoms: _300  and  _301
REMARK  134  A    between atoms: _300  and  _303
REMARK  135  A    between atoms: _303  and  _304
REMARK  136  A    between atoms: _304  and  _305
REMARK  137  A    between atoms: _308  and  _310
REMARK  138  A    between atoms: _310  and  _311
REMARK  139  A    between atoms: _310  and  _313
REMARK  140  A    between atoms: _313  and  _314
REMARK  141  A    between atoms: _317  and  _319
REMARK  142  A    between atoms: _319  and  _320
REMARK  143  A    between atoms: _319  and  _322
REMARK  144  A    between atoms: _322  and  _323
REMARK  145  A    between atoms: _328  and  _330
REMARK  146  A    between atoms: _330  and  _331
REMARK  147  A    between atoms: _330  and  _333
REMARK  148  A    between atoms: _333  and  _334
REMARK  149  A    between atoms: _334  and  _335
REMARK  150  A    between atoms: _335  and  _336
REMARK  151  A    between atoms: _336  and  _337
REMARK  152  A    between atoms: _341  and  _343
REMARK  153  A    between atoms: _343  and  _344
REMARK  154  A    between atoms: _343  and  _346
REMARK  155  A    between atoms: _346  and  _347
REMARK  156  A    between atoms: _350  and  _352
REMARK  157  A    between atoms: _352  and  _353
REMARK  158  A    between atoms: _352  and  _355
REMARK  159  A    between atoms: _355  and  _356
REMARK  160  A    between atoms: _359  and  _361
REMARK  161  A    between atoms: _361  and  _362
REMARK  162  A    between atoms: _361  and  _364
REMARK  163  A    between atoms: _364  and  _365
REMARK  164  A    between atoms: _368  and  _370
REMARK  165  A    between atoms: _370  and  _371
REMARK  166  A    between atoms: _374  and  _376
REMARK  167  A    between atoms: _376  and  _377
REMARK  168  A    between atoms: _376  and  _379
REMARK  169  A    between atoms: _379  and  _380
REMARK  170  A    between atoms: _383  and  _385
REMARK  171  A    between atoms: _385  and  _386
REMARK  172  A    between atoms: _385  and  _388
REMARK  173  A    between atoms: _388  and  _389
REMARK  174  A    between atoms: _391  and  _393
REMARK  175  A    between atoms: _393  and  _394
REMARK  176  A    between atoms: _393  and  _396
REMARK  177  A    between atoms: _396  and  _397
REMARK  178  A    between atoms: _400  and  _402
REMARK  179  A    between atoms: _402  and  _403
REMARK  180  A    between atoms: _402  and  _405
REMARK  181  A    between atoms: _405  and  _406
REMARK  182  A    between atoms: _406  and  _407
REMARK  183  A    between atoms: _407  and  _408
REMARK  184  A    between atoms: _408  and  _409
REMARK  185  A    between atoms: _413  and  _415
REMARK  186  A    between atoms: _415  and  _416
REMARK  187  A    between atoms: _415  and  _418
REMARK  188  A    between atoms: _418  and  _419
REMARK  189  A    between atoms: _422  and  _424
REMARK  190  A    between atoms: _424  and  _425
REMARK  191  A    between atoms: _424  and  _427
REMARK  192  A    between atoms: _427  and  _428
REMARK  193  A    between atoms: _428  and  _429
REMARK  194  A    between atoms: _431  and  _433
REMARK  195  A    between atoms: _433  and  _434
REMARK  196  A    between atoms: _433  and  _436
REMARK  197  A    between atoms: _436  and  _437
REMARK  198  A    between atoms: _437  and  _438
REMARK  199  A    between atoms: _441  and  _443
REMARK  200  A    between atoms: _443  and  _444
REMARK  201  A    between atoms: _443  and  _446
REMARK  202  A    between atoms: _446  and  _447
REMARK  203  A    between atoms: _450  and  _452
REMARK  204  A    between atoms: _452  and  _453
REMARK  205  A    between atoms: _452  and  _455
REMARK  206  A    between atoms: _455  and  _456
REMARK  207  A    between atoms: _458  and  _460
REMARK  208  A    between atoms: _460  and  _461
REMARK  209  A    between atoms: _460  and  _463
REMARK  210  A    between atoms: _463  and  _464
REMARK  211  A    between atoms: _467  and  _469
REMARK  212  A    between atoms: _469  and  _470
REMARK  213  A    between atoms: _469  and  _472
REMARK  214  A    between atoms: _472  and  _473
REMARK  215  A    between atoms: _476  and  _478
REMARK  216  A    between atoms: _478  and  _479
REMARK  217  A    between atoms: _478  and  _481
REMARK  218  A    between atoms: _481  and  _482
REMARK  219  A    between atoms: _482  and  _483
REMARK  220  A    between atoms: _486  and  _488
REMARK  221  A    between atoms: _488  and  _489
REMARK  222  A    between atoms: _491  and  _493
REMARK  223  A    between atoms: _493  and  _494
REMARK  224  A    between atoms: _493  and  _496
REMARK  225  A    between atoms: _496  and  _497
REMARK  226  A    between atoms: _500  and  _502
REMARK  227  A    between atoms: _502  and  _503
REMARK  228  A    between atoms: _502  and  _505
REMARK  229  A    between atoms: _505  and  _506
REMARK  230  A    between atoms: _509  and  _511
REMARK  231  A    between atoms: _511  and  _512
REMARK  232  A    between atoms: _511  and  _514
REMARK  233  A    between atoms: _514  and  _515
REMARK  234  A    between atoms: _518  and  _520
REMARK  235  A    between atoms: _520  and  _521
REMARK  236  A    between atoms: _520  and  _523
REMARK  237  A    between atoms: _523  and  _524
REMARK  238  A    between atoms: _527  and  _529
REMARK  239  A    between atoms: _529  and  _530
REMARK  240  A    between atoms: _529  and  _532
REMARK  241  A    between atoms: _532  and  _533
REMARK  242  A    between atoms: _533  and  _534
REMARK  243  A    between atoms: _534  and  _535
REMARK  244  A    between atoms: _535  and  _536
REMARK  245  A    between atoms: _540  and  _542
REMARK  246  A    between atoms: _542  and  _543
REMARK  247  A    between atoms: _542  and  _545
REMARK  248  A    between atoms: _545  and  _546
REMARK  249  A    between atoms: _551  and  _553
REMARK  250  A    between atoms: _553  and  _554
REMARK  251  A    between atoms: _553  and  _556
REMARK  252  A    between atoms: _556  and  _557
REMARK  253  A    between atoms: _560  and  _562
REMARK  254  A    between atoms: _562  and  _563
REMARK  255  A    between atoms: _566  and  _568
REMARK  256  A    between atoms: _568  and  _569
REMARK  257  A    between atoms: _568  and  _571
REMARK  258  A    between atoms: _571  and  _572
REMARK  259  A    between atoms: _575  and  _577
REMARK  260  A    between atoms: _577  and  _578
REMARK  261  A    between atoms: _581  and  _583
REMARK  262  A    between atoms: _583  and  _584
REMARK  263  A    between atoms: _583  and  _586
REMARK  264  A    between atoms: _589  and  _591
REMARK  265  A    between atoms: _591  and  _592
REMARK  266  A    between atoms: _594  and  _596
REMARK  267  A    between atoms: _596  and  _597
REMARK  268  A    between atoms: _600  and  _602
REMARK  269  A    between atoms: _602  and  _603
REMARK  270  A    between atoms: _602  and  _605
REMARK  271  A    between atoms: _605  and  _606
REMARK                            x       y       z     vdW  Elec       q    Type
REMARK                         _______ _______ _______ _____ _____    ______ ____
ROOT
ATOM      1  C   SER A   3       4.596  18.963 -29.102  0.00  0.00    +0.243 C 
ATOM      2  O   SER A   3       4.928  19.683 -28.162  0.00  0.00    -0.273 OA
ATOM      3  N   THR A   4       5.075  19.105 -30.337  0.00  0.00    -0.295 N 
ATOM      4  H   THR A   4       4.714  18.493 -31.096  0.00  0.00    +0.150 HD
ENDROOT
BRANCH   3   5
ATOM      5  CA  THR A   4       6.100  20.105 -30.648  0.00  0.00    +0.176 C 
BRANCH   5   6
ATOM      6  C   THR A   4       5.625  21.526 -30.340  0.00  0.00    +0.243 C 
ATOM      7  O   THR A   4       6.434  22.392 -30.008  0.00  0.00    -0.273 OA
ATOM      8  N   THR A   5       4.312  21.741 -30.429  0.00  0.00    -0.295 N 
ATOM      9  H   THR A   5       3.685  20.930 -30.604  0.00  0.00    +0.150 HD
BRANCH   8  10
ATOM     10  CA  THR A   5       3.714  23.074 -30.291  0.00  0.00    +0.176 C 
BRANCH  10  11
ATOM     11  C   THR A   5       3.720  23.599 -28.852  0.00  0.00    +0.243 C 
ATOM     12  N   GLU A   6       4.095  22.737 -27.911  0.00  0.00    -0.298 N 
ATOM     13  H   GLU A   6       4.268  21.747 -28.177  0.00  0.00    +0.150 HD
ATOM     14  O   THR A   5       3.392  24.762 -28.604  0.00  0.00    -0.273 OA
BRANCH  12  15
ATOM     15  CA  GLU A   6       4.272  23.133 -26.520  0.00  0.00    +0.137 C 
BRANCH  15  16
ATOM     16  C   GLU A   6       5.674  23.744 -26.283  0.00  0.00    +0.227 C 
ATOM     17  O   GLU A   6       5.929  24.340 -25.242  0.00  0.00    -0.286 OA
ENDBRANCH  15  16
BRANCH  15  18
ATOM     18  CB  GLU A   6       4.022  21.931 -25.600  0.00  0.00    +0.039 C 
BRANCH  18  19
ATOM     19  CG  GLU A   6       2.556  21.483 -25.562  0.00  0.00    +0.116 C 
BRANCH  19  20
ATOM     20  CD  GLU A   6       2.375  19.972 -25.650  0.00  0.00    +0.365 C 
ATOM     21  OE2 GLU A   6       3.250  19.225 -25.161  0.00  0.00    -0.246 OA
ATOM     22  OE1 GLU A   6       1.335  19.528 -26.198  0.00  0.00    -0.246 OA
ENDBRANCH  19  20
ENDBRANCH  18  19
ENDBRANCH  15  18
ENDBRANCH  12  15
ENDBRANCH  10  11
BRANCH  10  23
ATOM     23  CB  THR A   5       2.275  23.120 -30.876  0.00  0.00    +0.137 C 
ATOM     24  CG2 THR A   5       2.284  22.763 -32.353  0.00  0.00    +0.034 C 
BRANCH  23  25
ATOM     25  OG1 THR A   5       1.433  22.200 -30.174  0.00  0.00    -0.382 OA
ATOM     26  HG1 THR A   5       1.404  22.446 -29.216  0.00  0.00    +0.210 HD
ENDBRANCH  23  25
ENDBRANCH  10  23
ENDBRANCH   8  10
ENDBRANCH   5   6
BRANCH   5  27
ATOM     27  CB  THR A   4       6.560  20.028 -32.122  0.00  0.00    +0.137 C 
ATOM     28  CG2 THR A   4       7.062  18.626 -32.455  0.00  0.00    +0.034 C 
BRANCH  27  29
ATOM     29  OG1 THR A   4       5.471  20.367 -32.987  0.00  0.00    -0.382 OA
ATOM     30  HG1 THR A   4       4.726  19.732 -32.842  0.00  0.00    +0.210 HD
ENDBRANCH  27  29
ENDBRANCH   5  27
ENDBRANCH   3   5
BRANCH   1  31
ATOM     31  CA  SER A   3       3.599  17.836 -28.893  0.00  0.00    +0.178 C 
BRANCH  31  33
ATOM     32  C   ILE A   2       3.579  16.116 -27.224  0.00  0.00    +0.241 C 
ATOM     33  N   SER A   3       3.574  17.408 -27.506  0.00  0.00    -0.295 N 
ATOM     34  H   SER A   3       3.552  18.112 -26.740  0.00  0.00    +0.150 HD
ATOM     35  O   ILE A   2       3.580  15.245 -28.099  0.00  0.00    -0.273 OA
BRANCH  32  36
ATOM     36  CA  ILE A   2       3.532  15.735 -25.757  0.00  0.00    +0.148 C 
BRANCH  36  39
ATOM     37  C   VAL A   1       2.221  13.822 -25.055  0.00  0.00    +0.238 C 
ATOM     38  O   VAL A   1       1.515  14.514 -24.329  0.00  0.00    -0.274 OA
ATOM     39  N   ILE A   2       3.288  14.299 -25.681  0.00  0.00    -0.297 N 
ATOM     40  H   ILE A   2       3.960  13.640 -26.124  0.00  0.00    +0.150 HD
BRANCH  37  41
ATOM     41  CA  VAL A   1       1.933  12.334 -25.239  0.00  0.00    +0.145 C 
BRANCH  41  42
ATOM     42  CB  VAL A   1       0.557  12.144 -25.930  0.00  0.00    +0.025 C 
ATOM     43  CG2 VAL A   1       0.168  10.662 -25.954  0.00  0.00    +0.002 C 
ATOM     44  CG1 VAL A   1       0.564  12.744 -27.348  0.00  0.00    +0.002 C 
ENDBRANCH  41  42
BRANCH  41  45
ATOM     45  N   VAL A   1       1.969  11.675 -23.943  0.00  0.00    -0.238 NA
ATOM     46  H   VAL A   1       1.203  11.854 -23.263  0.00  0.00    +0.142 HD
ENDBRANCH  41  45
ENDBRANCH  37  41
ENDBRANCH  36  39
BRANCH  36  47
ATOM     47  CB  ILE A   2       4.821  16.213 -24.994  0.00  0.00    +0.027 C 
ATOM     48  CG2 ILE A   2       4.603  16.171 -23.472  0.00  0.00    +0.002 C 
BRANCH  47  49
ATOM     49  CG1 ILE A   2       6.093  15.478 -25.460  0.00  0.00    +0.002 C 
ATOM     50  CD1 ILE A   2       6.386  14.159 -24.739  0.00  0.00    +0.000 C 
ENDBRANCH  47  49
ENDBRANCH  36  47
ENDBRANCH  32  36
ENDBRANCH  31  33
BRANCH  31  51
ATOM     51  CB  SER A   3       2.194  18.212 -29.367  0.00  0.00    +0.166 C 
BRANCH  51  52
ATOM     52  OG  SER A   3       1.774  19.436 -28.816  0.00  0.00    -0.380 OA
ATOM     53  H   SER A   3       1.764  19.366 -27.829  0.00  0.00    +0.211 HD
ENDBRANCH  51  52
ENDBRANCH  31  51
ENDBRANCH   1  31
TORSDOF 24
REMARK  Name = ../refined-set-2016/2hf8/2hf8_pocket.pdb
REMARK  271 active torsions:
REMARK  status: ('A' for Active; 'I' for Inactive)
REMARK    1  A    between atoms: _1  and  _3
REMARK    2  A    between atoms: _3  and  _4
REMARK    3  A    between atoms: _3  and  _6
REMARK    4  A    between atoms: _6  and  _7
REMARK    5  A    between atoms: _13  and  _15
REMARK    6  A    between atoms: _15  and  _16
REMARK    7  A    between atoms: _15  and  _18
REMARK    8  A    between atoms: _18  and  _19
REMARK    9  A    between atoms: _19  and  _20
REMARK   10  A    between atoms: _22  and  _24
REMARK   11  A    between atoms: _24  and  _25
REMARK   12  A    between atoms: _27  and  _29
REMARK   13  A    between atoms: _29  and  _30
REMARK   14  A    between atoms: _33  and  _35
REMARK   15  A    between atoms: _35  and  _36
REMARK   16  A    between atoms: _35  and  _38
REMARK   17  A    between atoms: _38  and  _39
REMARK   18  A    between atoms: _42  and  _44
REMARK   19  A    between atoms: _44  and  _45
REMARK   20  A    between atoms: _47  and  _49
REMARK   21  A    between atoms: _49  and  _50
REMARK   22  A    between atoms: _49  and  _52
REMARK   23  A    between atoms: _52  and  _53
REMARK   24  A    between atoms: _55  and  _57
REMARK   25  A    between atoms: _57  and  _58
REMARK   26  A    between atoms: _60  and  _62
REMARK   27  A    between atoms: _62  and  _63
REMARK   28  A    between atoms: _62  and  _65
REMARK   29  A    between atoms: _65  and  _66
REMARK   30  A    between atoms: _66  and  _67
REMARK   31  A    between atoms: _67  and  _68
REMARK   32  A    between atoms: _68  and  _69
REMARK   33  A    between atoms: _73  and  _75
REMARK   34  A    between atoms: _75  and  _76
REMARK   35  A    between atoms: _75  and  _78
REMARK   36  A    between atoms: _78  and  _79
REMARK   37  A    between atoms: _82  and  _84
REMARK   38  A    between atoms: _84  and  _85
REMARK   39  A    between atoms: _84  and  _87
REMARK   40  A    between atoms: _87  and  _88
REMARK   41  A    between atoms: _91  and  _93
REMARK   42  A    between atoms: _93  and  _94
REMARK   43  A    between atoms: _93  and  _96
REMARK   44  A    between atoms: _96  and  _97
REMARK   45  A    between atoms: _100  and  _102
REMARK   46  A    between atoms: _102  and  _103
REMARK   47  A    between atoms: _102  and  _105
REMARK   48  A    between atoms: _105  and  _106
REMARK   49  A    between atoms: _109  and  _111
REMARK   50  A    between atoms: _111  and  _112
REMARK   51  A    between atoms: _111  and  _114
REMARK   52  A    between atoms: _114  and  _115
REMARK   53  A    between atoms: _115  and  _116
REMARK   54  A    between atoms: _119  and  _121
REMARK   55  A    between atoms: _121  and  _122
REMARK   56  A    between atoms: _121  and  _124
REMARK   57  A    between atoms: _124  and  _125
REMARK   58  A    between atoms: _125  and  _126
REMARK   59  A    between atoms: _126  and  _127
REMARK   60  A    between atoms: _127  and  _128
REMARK   61  A    between atoms: _132  and  _134
REMARK   62  A    between atoms: _134  and  _135
REMARK   63  A    between atoms: _137  and  _139
REMARK   64  A    between atoms: _139  and  _140
REMARK   65  A    between atoms: _139  and  _142
REMARK   66  A    between atoms: _142  and  _143
REMARK   67  A    between atoms: _146  and  _148
REMARK   68  A    between atoms: _148  and  _149
REMARK   69  A    between atoms: _148  and  _151
REMARK   70  A    between atoms: _154  and  _156
REMARK   71  A    between atoms: _156  and  _157
REMARK   72  A    between atoms: _156  and  _159
REMARK   73  A    between atoms: _159  and  _160
REMARK   74  A    between atoms: _163  and  _165
REMARK   75  A    between atoms: _165  and  _166
REMARK   76  A    between atoms: _165  and  _168
REMARK   77  A    between atoms: _168  and  _169
REMARK   78  A    between atoms: _175  and  _177
REMARK   79  A    between atoms: _177  and  _178
REMARK   80  A    between atoms: _177  and  _180
REMARK   81  A    between atoms: _180  and  _181
REMARK   82  A    between atoms: _181  and  _183
REMARK   83  A    between atoms: _183  and  MG_609
REMARK   84  A    between atoms: _184  and  _186
REMARK   85  A    between atoms: _186  and  _187
REMARK   86  A    between atoms: _186  and  _189
REMARK   87  A    between atoms: _189  and  _190
REMARK   88  A    between atoms: _190  and  _191
REMARK   89  A    between atoms: _191  and  _192
REMARK   90  A    between atoms: _201  and  _203
REMARK   91  A    between atoms: _203  and  _204
REMARK   92  A    between atoms: _203  and  _206
REMARK   93  A    between atoms: _206  and  _207
REMARK   94  A    between atoms: _207  and  _208
REMARK   95  A    between atoms: _210  and  _212
REMARK   96  A    between atoms: _212  and  _213
REMARK   97  A    between atoms: _212  and  _215
REMARK   98  A    between atoms: _215  and  _216
REMARK   99  A    between atoms: _216  and  _217
REMARK  100  A    between atoms: _220  and  _222
REMARK  101  A    between atoms: _222  and  _223
REMARK  102  A    between atoms: _222  and  _225
REMARK  103  A    between atoms: _225  and  _226
REMARK  104  A    between atoms: _231  and  _233
REMARK  105  A    between atoms: _233  and  _234
REMARK  106  A    between atoms: _233  and  _236
REMARK  107  A    between atoms: _239  and  _241
REMARK  108  A    between atoms: _241  and  _242
REMARK  109  A    between atoms: _244  and  _246
REMARK  110  A    between atoms: _246  and  _247
REMARK  111  A    between atoms: _246  and  _249
REMARK  112  A    between atoms: _249  and  _250
REMARK  113  A    between atoms: _255  and  _257
REMARK  114  A    between atoms: _257  and  _258
REMARK  115  A    between atoms: _257  and  _260
REMARK  116  A    between atoms: _263  and  _265
REMARK  117  A    between atoms: _265  and  _266
REMARK  118  A    between atoms: _265  and  _268
REMARK  119  A    between atoms: _268  and  _269
REMARK  120  A    between atoms: _272  and  _274
REMARK  121  A    between atoms: _274  and  _275
REMARK  122  A    between atoms: _274  and  _277
REMARK  123  A    between atoms: _277  and  _278
REMARK  124  A    between atoms: _280  and  _282
REMARK  125  A    between atoms: _282  and  _283
REMARK  126  A    between atoms: _282  and  _285
REMARK  127  A    between atoms: _285  and  _286
REMARK  128  A    between atoms: _289  and  _291
REMARK  129  A    between atoms: _291  and  _292
REMARK  130  A    between atoms: _291  and  _294
REMARK  131  A    between atoms: _294  and  _295
REMARK  132  A    between atoms: _298  and  _300
REMARK  133  A    between atoms: _300  and  _301
REMARK  134  A    between atoms: _300  and  _303
REMARK  135  A    between atoms: _303  and  _304
REMARK  136  A    between atoms: _304  and  _305
REMARK  137  A    between atoms: _308  and  _310
REMARK  138  A    between atoms: _310  and  _311
REMARK  139  A    between atoms: _310  and  _313
REMARK  140  A    between atoms: _313  and  _314
REMARK  141  A    between atoms: _317  and  _319
REMARK  142  A    between atoms: _319  and  _320
REMARK  143  A    between atoms: _319  and  _322
REMARK  144  A    between atoms: _322  and  _323
REMARK  145  A    between atoms: _328  and  _330
REMARK  146  A    between atoms: _330  and  _331
REMARK  147  A    between atoms: _330  and  _333
REMARK  148  A    between atoms: _333  and  _334
REMARK  149  A    between atoms: _334  and  _335
REMARK  150  A    between atoms: _335  and  _336
REMARK  151  A    between atoms: _336  and  _337
REMARK  152  A    between atoms: _341  and  _343
REMARK  153  A    between atoms: _343  and  _344
REMARK  154  A    between atoms: _343  and  _346
REMARK  155  A    between atoms: _346  and  _347
REMARK  156  A    between atoms: _350  and  _352
REMARK  157  A    between atoms: _352  and  _353
REMARK  158  A    between atoms: _352  and  _355
REMARK  159  A    between atoms: _355  and  _356
REMARK  160  A    between atoms: _359  and  _361
REMARK  161  A    between atoms: _361  and  _362
REMARK  162  A    between atoms: _361  and  _364
REMARK  163  A    between atoms: _364  and  _365
REMARK  164  A    between atoms: _368  and  _370
REMARK  165  A    between atoms: _370  and  _371
REMARK  166  A    between atoms: _374  and  _376
REMARK  167  A    between atoms: _376  and  _377
REMARK  168  A    between atoms: _376  and  _379
REMARK  169  A    between atoms: _379  and  _380
REMARK  170  A    between atoms: _383  and  _385
REMARK  171  A    between atoms: _385  and  _386
REMARK  172  A    between atoms: _385  and  _388
REMARK  173  A    between atoms: _388  and  _389
REMARK  174  A    between atoms: _391  and  _393
REMARK  175  A    between atoms: _393  and  _394
REMARK  176  A    between atoms: _393  and  _396
REMARK  177  A    between atoms: _396  and  _397
REMARK  178  A    between atoms: _400  and  _402
REMARK  179  A    between atoms: _402  and  _403
REMARK  180  A    between atoms: _402  and  _405
REMARK  181  A    between atoms: _405  and  _406
REMARK  182  A    between atoms: _406  and  _407
REMARK  183  A    between atoms: _407  and  _408
REMARK  184  A    between atoms: _408  and  _409
REMARK  185  A    between atoms: _413  and  _415
REMARK  186  A    between atoms: _415  and  _416
REMARK  187  A    between atoms: _415  and  _418
REMARK  188  A    between atoms: _418  and  _419
REMARK  189  A    between atoms: _422  and  _424
REMARK  190  A    between atoms: _424  and  _425
REMARK  191  A    between atoms: _424  and  _427
REMARK  192  A    between atoms: _427  and  _428
REMARK  193  A    between atoms: _428  and  _429
REMARK  194  A    between atoms: _431  and  _433
REMARK  195  A    between atoms: _433  and  _434
REMARK  196  A    between atoms: _433  and  _436
REMARK  197  A    between atoms: _436  and  _437
REMARK  198  A    between atoms: _437  and  _438
REMARK  199  A    between atoms: _441  and  _443
REMARK  200  A    between atoms: _443  and  _444
REMARK  201  A    between atoms: _443  and  _446
REMARK  202  A    between atoms: _446  and  _447
REMARK  203  A    between atoms: _450  and  _452
REMARK  204  A    between atoms: _452  and  _453
REMARK  205  A    between atoms: _452  and  _455
REMARK  206  A    between atoms: _455  and  _456
REMARK  207  A    between atoms: _458  and  _460
REMARK  208  A    between atoms: _460  and  _461
REMARK  209  A    between atoms: _460  and  _463
REMARK  210  A    between atoms: _463  and  _464
REMARK  211  A    between atoms: _467  and  _469
REMARK  212  A    between atoms: _469  and  _470
REMARK  213  A    between atoms: _469  and  _472
REMARK  214  A    between atoms: _472  and  _473
REMARK  215  A    between atoms: _476  and  _478
REMARK  216  A    between atoms: _478  and  _479
REMARK  217  A    between atoms: _478  and  _481
REMARK  218  A    between atoms: _481  and  _482
REMARK  219  A    between atoms: _482  and  _483
REMARK  220  A    between atoms: _486  and  _488
REMARK  221  A    between atoms: _488  and  _489
REMARK  222  A    between atoms: _491  and  _493
REMARK  223  A    between atoms: _493  and  _494
REMARK  224  A    between atoms: _493  and  _496
REMARK  225  A    between atoms: _496  and  _497
REMARK  226  A    between atoms: _500  and  _502
REMARK  227  A    between atoms: _502  and  _503
REMARK  228  A    between atoms: _502  and  _505
REMARK  229  A    between atoms: _505  and  _506
REMARK  230  A    between atoms: _509  and  _511
REMARK  231  A    between atoms: _511  and  _512
REMARK  232  A    between atoms: _511  and  _514
REMARK  233  A    between atoms: _514  and  _515
REMARK  234  A    between atoms: _518  and  _520
REMARK  235  A    between atoms: _520  and  _521
REMARK  236  A    between atoms: _520  and  _523
REMARK  237  A    between atoms: _523  and  _524
REMARK  238  A    between atoms: _527  and  _529
REMARK  239  A    between atoms: _529  and  _530
REMARK  240  A    between atoms: _529  and  _532
REMARK  241  A    between atoms: _532  and  _533
REMARK  242  A    between atoms: _533  and  _534
REMARK  243  A    between atoms: _534  and  _535
REMARK  244  A    between atoms: _535  and  _536
REMARK  245  A    between atoms: _540  and  _542
REMARK  246  A    between atoms: _542  and  _543
REMARK  247  A    between atoms: _542  and  _545
REMARK  248  A    between atoms: _545  and  _546
REMARK  249  A    between atoms: _551  and  _553
REMARK  250  A    between atoms: _553  and  _554
REMARK  251  A    between atoms: _553  and  _556
REMARK  252  A    between atoms: _556  and  _557
REMARK  253  A    between atoms: _560  and  _562
REMARK  254  A    between atoms: _562  and  _563
REMARK  255  A    between atoms: _566  and  _568
REMARK  256  A    between atoms: _568  and  _569
REMARK  257  A    between atoms: _568  and  _571
REMARK  258  A    between atoms: _571  and  _572
REMARK  259  A    between atoms: _575  and  _577
REMARK  260  A    between atoms: _577  and  _578
REMARK  261  A    between atoms: _581  and  _583
REMARK  262  A    between atoms: _583  and  _584
REMARK  263  A    between atoms: _583  and  _586
REMARK  264  A    between atoms: _589  and  _591
REMARK  265  A    between atoms: _591  and  _592
REMARK  266  A    between atoms: _594  and  _596
REMARK  267  A    between atoms: _596  and  _597
REMARK  268  A    between atoms: _600  and  _602
REMARK  269  A    between atoms: _602  and  _603
REMARK  270  A    between atoms: _602  and  _605
REMARK  271  A    between atoms: _605  and  _606
REMARK                            x       y       z     vdW  Elec       q    Type
REMARK                         _______ _______ _______ _____ _____    ______ ____
ROOT
ATOM      1  C   LYS A   3       4.077  17.473 -34.748  0.00  0.00    +0.241 C 
ATOM      2  O   LYS A   3       4.449  18.650 -34.780  0.00  0.00    -0.273 OA
ATOM      3  N   ILE A   4       4.829  16.467 -35.191  0.00  0.00    -0.297 N 
ATOM      4  H   ILE A   4       4.482  15.489 -35.121  0.00  0.00    +0.150 HD
ENDROOT
BRANCH   3   5
ATOM      5  CA  ILE A   4       6.139  16.736 -35.775  0.00  0.00    +0.149 C 
BRANCH   5   6
ATOM      6  C   ILE A   4       6.028  17.555 -37.066  0.00  0.00    +0.241 C 
ATOM      7  O   ILE A   4       6.980  18.232 -37.443  0.00  0.00    -0.273 OA
ATOM      8  N   ASP A   5       4.859  17.504 -37.712  0.00  0.00    -0.297 N 
ATOM      9  H   ASP A   5       4.118  16.866 -37.358  0.00  0.00    +0.150 HD
BRANCH   8  10
ATOM     10  CA  ASP A   5       4.582  18.316 -38.904  0.00  0.00    +0.160 C 
BRANCH  10  11
ATOM     11  C   ASP A   5       4.593  19.826 -38.632  0.00  0.00    +0.241 C 
ATOM     12  N   LEU A   6       4.465  20.212 -37.362  0.00  0.00    -0.297 N 
ATOM     13  H   LEU A   6       4.414  19.486 -36.619  0.00  0.00    +0.150 HD
ATOM     14  O   ASP A   5       4.730  20.621 -39.562  0.00  0.00    -0.273 OA
BRANCH  12  15
ATOM     15  CA  LEU A   6       4.393  21.627 -36.978  0.00  0.00    +0.149 C 
BRANCH  15  16
ATOM     16  C   LEU A   6       5.666  22.166 -36.325  0.00  0.00    +0.241 C 
ATOM     17  O   LEU A   6       5.700  23.324 -35.878  0.00  0.00    -0.273 OA
ATOM     18  N   ALA A   7       6.701  21.330 -36.257  0.00  0.00    -0.298 N 
ATOM     19  H   ALA A   7       6.651  20.424 -36.766  0.00  0.00    +0.150 HD
BRANCH  18  20
ATOM     20  CA  ALA A   7       7.907  21.647 -35.488  0.00  0.00    +0.137 C 
ATOM     21  CB  ALA A   7       8.887  20.484 -35.538  0.00  0.00    +0.030 C 
BRANCH  20  22
ATOM     22  C   ALA A   7       8.590  22.943 -35.935  0.00  0.00    +0.227 C 
ATOM     23  O   ALA A   7       8.925  23.790 -35.104  0.00  0.00    -0.286 OA
ENDBRANCH  20  22
ENDBRANCH  18  20
ENDBRANCH  15  16
BRANCH  15  24
ATOM     24  CB  LEU A   6       3.203  21.860 -36.032  0.00  0.00    +0.029 C 
BRANCH  24  25
ATOM     25  CG  LEU A   6       1.821  21.409 -36.514  0.00  0.00    +0.002 C 
ATOM     26  CD2 LEU A   6       0.769  21.702 -35.469  0.00  0.00    +0.000 C 
ATOM     27  CD1 LEU A   6       1.459  22.065 -37.841  0.00  0.00    +0.000 C 
ENDBRANCH  24  25
ENDBRANCH  15  24
ENDBRANCH  12  15
ENDBRANCH  10  11
BRANCH  10  28
ATOM     28  CB  ASP A   5       3.263  17.897 -39.579  0.00  0.00    +0.143 C 
BRANCH  28  29
ATOM     29  CG  ASP A   5       2.057  17.998 -38.650  0.00  0.00    +0.367 C 
ATOM     30  OD2 ASP A   5       1.974  17.212 -37.677  0.00  0.00    -0.246 OA
ATOM     31  OD1 ASP A   5       1.173  18.845 -38.911  0.00  0.00    -0.246 OA
ENDBRANCH  28  29
ENDBRANCH  10  28
ENDBRANCH   8  10
ENDBRANCH   5   6
BRANCH   5  32
ATOM     32  CB  ILE A   4       7.014  15.462 -35.991  0.00  0.00    +0.027 C 
ATOM     33  CG2 ILE A   4       7.425  14.845 -34.632  0.00  0.00    +0.002 C 
BRANCH  32  34
ATOM     34  CG1 ILE A   4       6.343  14.466 -36.949  0.00  0.00    +0.002 C 
ATOM     35  CD1 ILE A   4       7.227  13.284 -37.333  0.00  0.00    +0.000 C 
ENDBRANCH  32  34
ENDBRANCH   5  32
ENDBRANCH   3   5
BRANCH   1  36
ATOM     36  CA  LYS A   3       2.703  17.118 -34.195  0.00  0.00    +0.149 C 
BRANCH  36  39
ATOM     37  C   ASN A   2       3.500  15.754 -32.283  0.00  0.00    +0.241 C 
ATOM     38  O   ASN A   2       4.265  16.627 -31.869  0.00  0.00    -0.273 OA
ATOM     39  N   LYS A   3       2.730  15.903 -33.365  0.00  0.00    -0.297 N 
ATOM     40  H   LYS A   3       2.112  15.112 -33.637  0.00  0.00    +0.150 HD
BRANCH  37  41
ATOM     41  CA  ASN A   2       3.419  14.399 -31.566  0.00  0.00    +0.158 C 
BRANCH  41  43
ATOM     42  C   ILE A   1       5.598  13.667 -30.691  0.00  0.00    +0.238 C 
ATOM     43  N   ASN A   2       4.438  14.297 -30.522  0.00  0.00    -0.297 N 
ATOM     44  H   ASN A   2       4.246  14.739 -29.600  0.00  0.00    +0.150 HD
ATOM     45  O   ILE A   1       5.997  13.228 -31.783  0.00  0.00    -0.274 OA
BRANCH  42  46
ATOM     46  CA  ILE A   1       6.407  13.465 -29.414  0.00  0.00    +0.145 C 
BRANCH  46  47
ATOM     47  N   ILE A   1       6.192  12.083 -29.015  0.00  0.00    -0.238 NA
ATOM     48  H   ILE A   1       6.734  11.336 -29.495  0.00  0.00    +0.142 HD
ENDBRANCH  46  47
BRANCH  46  49
ATOM     49  CB  ILE A   1       7.909  13.775 -29.614  0.00  0.00    +0.025 C 
ATOM     50  CG2 ILE A   1       8.106  15.212 -30.117  0.00  0.00    +0.002 C 
BRANCH  49  51
ATOM     51  CG1 ILE A   1       8.667  13.521 -28.301  0.00  0.00    +0.002 C 
ATOM     52  CD1 ILE A   1      10.171  13.339 -28.461  0.00  0.00    +0.000 C 
ENDBRANCH  49  51
ENDBRANCH  46  49
ENDBRANCH  42  46
ENDBRANCH  41  43
BRANCH  41  53
ATOM     53  CB  ASN A   2       2.029  14.170 -30.943  0.00  0.00    +0.114 C 
BRANCH  53  54
ATOM     54  CG  ASN A   2       0.917  14.028 -31.980  0.00  0.00    +0.222 C 
ATOM     55  OD1 ASN A   2      -0.197  14.511 -31.771  0.00  0.00    -0.275 OA
ATOM     56  ND2 ASN A   2       1.213  13.383 -33.095  0.00  0.00    -0.329 N 
ATOM     57 HD21 ASN A   2       2.166  12.990 -33.231  0.00  0.00    +0.145 HD
ATOM     58 HD22 ASN A   2       0.493  13.268 -33.836  0.00  0.00    +0.145 HD
ENDBRANCH  53  54
ENDBRANCH  41  53
ENDBRANCH  37  41
ENDBRANCH  36  39
BRANCH  36  59
ATOM     59  CB  LYS A   3       2.116  18.325 -33.435  0.00  0.00    +0.029 C 
BRANCH  59  60
ATOM     60  CG  LYS A   3       0.750  18.103 -32.829  0.00  0.00    +0.000 C 
BRANCH  60  61
ATOM     61  CD  LYS A   3       0.225  19.369 -32.182  0.00  0.00    -0.024 C 
BRANCH  61  62
ATOM     62  CE  LYS A   3      -0.882  19.058 -31.190  0.00  0.00    -0.086 C 
BRANCH  62  63
ATOM     63  NZ  LYS A   3      -0.897  20.072 -30.082  0.00  0.00    +0.380 N 
ATOM     64  HZ1 LYS A   3      -1.660  19.843 -29.414  0.00  0.00    -0.089 HD
ATOM     65  HZ2 LYS A   3       0.017  20.055 -29.585  0.00  0.00    -0.089 HD
ATOM     66  HZ3 LYS A   3      -1.058  21.018 -30.482  0.00  0.00    -0.089 HD
ENDBRANCH  62  63
ENDBRANCH  61  62
ENDBRANCH  60  61
ENDBRANCH  59  60
ENDBRANCH  36  59
ENDBRANCH   1  36
TORSDOF 29
REMARK  Name = ../refined-set-2016/2hf8/2hf8_pocket.pdb
REMARK  271 active torsions:
REMARK  status: ('A' for Active; 'I' for Inactive)
REMARK    1  A    between atoms: _1  and  _3
REMARK    2  A    between atoms: _3  and  _4
REMARK    3  A    between atoms: _3  and  _6
REMARK    4  A    between atoms: _6  and  _7
REMARK    5  A    between atoms: _13  and  _15
REMARK    6  A    between atoms: _15  and  _16
REMARK    7  A    between atoms: _15  and  _18
REMARK    8  A    between atoms: _18  and  _19
REMARK    9  A    between atoms: _19  and  _20
REMARK   10  A    between atoms: _22  and  _24
REMARK   11  A    between atoms: _24  and  _25
REMARK   12  A    between atoms: _27  and  _29
REMARK   13  A    between atoms: _29  and  _30
REMARK   14  A    between atoms: _33  and  _35
REMARK   15  A    between atoms: _35  and  _36
REMARK   16  A    between atoms: _35  and  _38
REMARK   17  A    between atoms: _38  and  _39
REMARK   18  A    between atoms: _42  and  _44
REMARK   19  A    between atoms: _44  and  _45
REMARK   20  A    between atoms: _47  and  _49
REMARK   21  A    between atoms: _49  and  _50
REMARK   22  A    between atoms: _49  and  _52
REMARK   23  A    between atoms: _52  and  _53
REMARK   24  A    between atoms: _55  and  _57
REMARK   25  A    between atoms: _57  and  _58
REMARK   26  A    between atoms: _60  and  _62
REMARK   27  A    between atoms: _62  and  _63
REMARK   28  A    between atoms: _62  and  _65
REMARK   29  A    between atoms: _65  and  _66
REMARK   30  A    between atoms: _66  and  _67
REMARK   31  A    between atoms: _67  and  _68
REMARK   32  A    between atoms: _68  and  _69
REMARK   33  A    between atoms: _73  and  _75
REMARK   34  A    between atoms: _75  and  _76
REMARK   35  A    between atoms: _75  and  _78
REMARK   36  A    between atoms: _78  and  _79
REMARK   37  A    between atoms: _82  and  _84
REMARK   38  A    between atoms: _84  and  _85
REMARK   39  A    between atoms: _84  and  _87
REMARK   40  A    between atoms: _87  and  _88
REMARK   41  A    between atoms: _91  and  _93
REMARK   42  A    between atoms: _93  and  _94
REMARK   43  A    between atoms: _93  and  _96
REMARK   44  A    between atoms: _96  and  _97
REMARK   45  A    between atoms: _100  and  _102
REMARK   46  A    between atoms: _102  and  _103
REMARK   47  A    between atoms: _102  and  _105
REMARK   48  A    between atoms: _105  and  _106
REMARK   49  A    between atoms: _109  and  _111
REMARK   50  A    between atoms: _111  and  _112
REMARK   51  A    between atoms: _111  and  _114
REMARK   52  A    between atoms: _114  and  _115
REMARK   53  A    between atoms: _115  and  _116
REMARK   54  A    between atoms: _119  and  _121
REMARK   55  A    between atoms: _121  and  _122
REMARK   56  A    between atoms: _121  and  _124
REMARK   57  A    between atoms: _124  and  _125
REMARK   58  A    between atoms: _125  and  _126
REMARK   59  A    between atoms: _126  and  _127
REMARK   60  A    between atoms: _127  and  _128
REMARK   61  A    between atoms: _132  and  _134
REMARK   62  A    between atoms: _134  and  _135
REMARK   63  A    between atoms: _137  and  _139
REMARK   64  A    between atoms: _139  and  _140
REMARK   65  A    between atoms: _139  and  _142
REMARK   66  A    between atoms: _142  and  _143
REMARK   67  A    between atoms: _146  and  _148
REMARK   68  A    between atoms: _148  and  _149
REMARK   69  A    between atoms: _148  and  _151
REMARK   70  A    between atoms: _154  and  _156
REMARK   71  A    between atoms: _156  and  _157
REMARK   72  A    between atoms: _156  and  _159
REMARK   73  A    between atoms: _159  and  _160
REMARK   74  A    between atoms: _163  and  _165
REMARK   75  A    between atoms: _165  and  _166
REMARK   76  A    between atoms: _165  and  _168
REMARK   77  A    between atoms: _168  and  _169
REMARK   78  A    between atoms: _175  and  _177
REMARK   79  A    between atoms: _177  and  _178
REMARK   80  A    between atoms: _177  and  _180
REMARK   81  A    between atoms: _180  and  _181
REMARK   82  A    between atoms: _181  and  _183
REMARK   83  A    between atoms: _183  and  MG_609
REMARK   84  A    between atoms: _184  and  _186
REMARK   85  A    between atoms: _186  and  _187
REMARK   86  A    between atoms: _186  and  _189
REMARK   87  A    between atoms: _189  and  _190
REMARK   88  A    between atoms: _190  and  _191
REMARK   89  A    between atoms: _191  and  _192
REMARK   90  A    between atoms: _201  and  _203
REMARK   91  A    between atoms: _203  and  _204
REMARK   92  A    between atoms: _203  and  _206
REMARK   93  A    between atoms: _206  and  _207
REMARK   94  A    between atoms: _207  and  _208
REMARK   95  A    between atoms: _210  and  _212
REMARK   96  A    between atoms: _212  and  _213
REMARK   97  A    between atoms: _212  and  _215
REMARK   98  A    between atoms: _215  and  _216
REMARK   99  A    between atoms: _216  and  _217
REMARK  100  A    between atoms: _220  and  _222
REMARK  101  A    between atoms: _222  and  _223
REMARK  102  A    between atoms: _222  and  _225
REMARK  103  A    between atoms: _225  and  _226
REMARK  104  A    between atoms: _231  and  _233
REMARK  105  A    between atoms: _233  and  _234
REMARK  106  A    between atoms: _233  and  _236
REMARK  107  A    between atoms: _239  and  _241
REMARK  108  A    between atoms: _241  and  _242
REMARK  109  A    between atoms: _244  and  _246
REMARK  110  A    between atoms: _246  and  _247
REMARK  111  A    between atoms: _246  and  _249
REMARK  112  A    between atoms: _249  and  _250
REMARK  113  A    between atoms: _255  and  _257
REMARK  114  A    between atoms: _257  and  _258
REMARK  115  A    between atoms: _257  and  _260
REMARK  116  A    between atoms: _263  and  _265
REMARK  117  A    between atoms: _265  and  _266
REMARK  118  A    between atoms: _265  and  _268
REMARK  119  A    between atoms: _268  and  _269
REMARK  120  A    between atoms: _272  and  _274
REMARK  121  A    between atoms: _274  and  _275
REMARK  122  A    between atoms: _274  and  _277
REMARK  123  A    between atoms: _277  and  _278
REMARK  124  A    between atoms: _280  and  _282
REMARK  125  A    between atoms: _282  and  _283
REMARK  126  A    between atoms: _282  and  _285
REMARK  127  A    between atoms: _285  and  _286
REMARK  128  A    between atoms: _289  and  _291
REMARK  129  A    between atoms: _291  and  _292
REMARK  130  A    between atoms: _291  and  _294
REMARK  131  A    between atoms: _294  and  _295
REMARK  132  A    between atoms: _298  and  _300
REMARK  133  A    between atoms: _300  and  _301
REMARK  134  A    between atoms: _300  and  _303
REMARK  135  A    between atoms: _303  and  _304
REMARK  136  A    between atoms: _304  and  _305
REMARK  137  A    between atoms: _308  and  _310
REMARK  138  A    between atoms: _310  and  _311
REMARK  139  A    between atoms: _310  and  _313
REMARK  140  A    between atoms: _313  and  _314
REMARK  141  A    between atoms: _317  and  _319
REMARK  142  A    between atoms: _319  and  _320
REMARK  143  A    between atoms: _319  and  _322
REMARK  144  A    between atoms: _322  and  _323
REMARK  145  A    between atoms: _328  and  _330
REMARK  146  A    between atoms: _330  and  _331
REMARK  147  A    between atoms: _330  and  _333
REMARK  148  A    between atoms: _333  and  _334
REMARK  149  A    between atoms: _334  and  _335
REMARK  150  A    between atoms: _335  and  _336
REMARK  151  A    between atoms: _336  and  _337
REMARK  152  A    between atoms: _341  and  _343
REMARK  153  A    between atoms: _343  and  _344
REMARK  154  A    between atoms: _343  and  _346
REMARK  155  A    between atoms: _346  and  _347
REMARK  156  A    between atoms: _350  and  _352
REMARK  157  A    between atoms: _352  and  _353
REMARK  158  A    between atoms: _352  and  _355
REMARK  159  A    between atoms: _355  and  _356
REMARK  160  A    between atoms: _359  and  _361
REMARK  161  A    between atoms: _361  and  _362
REMARK  162  A    between atoms: _361  and  _364
REMARK  163  A    between atoms: _364  and  _365
REMARK  164  A    between atoms: _368  and  _370
REMARK  165  A    between atoms: _370  and  _371
REMARK  166  A    between atoms: _374  and  _376
REMARK  167  A    between atoms: _376  and  _377
REMARK  168  A    between atoms: _376  and  _379
REMARK  169  A    between atoms: _379  and  _380
REMARK  170  A    between atoms: _383  and  _385
REMARK  171  A    between atoms: _385  and  _386
REMARK  172  A    between atoms: _385  and  _388
REMARK  173  A    between atoms: _388  and  _389
REMARK  174  A    between atoms: _391  and  _393
REMARK  175  A    between atoms: _393  and  _394
REMARK  176  A    between atoms: _393  and  _396
REMARK  177  A    between atoms: _396  and  _397
REMARK  178  A    between atoms: _400  and  _402
REMARK  179  A    between atoms: _402  and  _403
REMARK  180  A    between atoms: _402  and  _405
REMARK  181  A    between atoms: _405  and  _406
REMARK  182  A    between atoms: _406  and  _407
REMARK  183  A    between atoms: _407  and  _408
REMARK  184  A    between atoms: _408  and  _409
REMARK  185  A    between atoms: _413  and  _415
REMARK  186  A    between atoms: _415  and  _416
REMARK  187  A    between atoms: _415  and  _418
REMARK  188  A    between atoms: _418  and  _419
REMARK  189  A    between atoms: _422  and  _424
REMARK  190  A    between atoms: _424  and  _425
REMARK  191  A    between atoms: _424  and  _427
REMARK  192  A    between atoms: _427  and  _428
REMARK  193  A    between atoms: _428  and  _429
REMARK  194  A    between atoms: _431  and  _433
REMARK  195  A    between atoms: _433  and  _434
REMARK  196  A    between atoms: _433  and  _436
REMARK  197  A    between atoms: _436  and  _437
REMARK  198  A    between atoms: _437  and  _438
REMARK  199  A    between atoms: _441  and  _443
REMARK  200  A    between atoms: _443  and  _444
REMARK  201  A    between atoms: _443  and  _446
REMARK  202  A    between atoms: _446  and  _447
REMARK  203  A    between atoms: _450  and  _452
REMARK  204  A    between atoms: _452  and  _453
REMARK  205  A    between atoms: _452  and  _455
REMARK  206  A    between atoms: _455  and  _456
REMARK  207  A    between atoms: _458  and  _460
REMARK  208  A    between atoms: _460  and  _461
REMARK  209  A    between atoms: _460  and  _463
REMARK  210  A    between atoms: _463  and  _464
REMARK  211  A    between atoms: _467  and  _469
REMARK  212  A    between atoms: _469  and  _470
REMARK  213  A    between atoms: _469  and  _472
REMARK  214  A    between atoms: _472  and  _473
REMARK  215  A    between atoms: _476  and  _478
REMARK  216  A    between atoms: _478  and  _479
REMARK  217  A    between atoms: _478  and  _481
REMARK  218  A    between atoms: _481  and  _482
REMARK  219  A    between atoms: _482  and  _483
REMARK  220  A    between atoms: _486  and  _488
REMARK  221  A    between atoms: _488  and  _489
REMARK  222  A    between atoms: _491  and  _493
REMARK  223  A    between atoms: _493  and  _494
REMARK  224  A    between atoms: _493  and  _496
REMARK  225  A    between atoms: _496  and  _497
REMARK  226  A    between atoms: _500  and  _502
REMARK  227  A    between atoms: _502  and  _503
REMARK  228  A    between atoms: _502  and  _505
REMARK  229  A    between atoms: _505  and  _506
REMARK  230  A    between atoms: _509  and  _511
REMARK  231  A    between atoms: _511  and  _512
REMARK  232  A    between atoms: _511  and  _514
REMARK  233  A    between atoms: _514  and  _515
REMARK  234  A    between atoms: _518  and  _520
REMARK  235  A    between atoms: _520  and  _521
REMARK  236  A    between atoms: _520  and  _523
REMARK  237  A    between atoms: _523  and  _524
REMARK  238  A    between atoms: _527  and  _529
REMARK  239  A    between atoms: _529  and  _530
REMARK  240  A    between atoms: _529  and  _532
REMARK  241  A    between atoms: _532  and  _533
REMARK  242  A    between atoms: _533  and  _534
REMARK  243  A    between atoms: _534  and  _535
REMARK  244  A    between atoms: _535  and  _536
REMARK  245  A    between atoms: _540  and  _542
REMARK  246  A    between atoms: _542  and  _543
REMARK  247  A    between atoms: _542  and  _545
REMARK  248  A    between atoms: _545  and  _546
REMARK  249  A    between atoms: _551  and  _553
REMARK  250  A    between atoms: _553  and  _554
REMARK  251  A    between atoms: _553  and  _556
REMARK  252  A    between atoms: _556  and  _557
REMARK  253  A    between atoms: _560  and  _562
REMARK  254  A    between atoms: _562  and  _563
REMARK  255  A    between atoms: _566  and  _568
REMARK  256  A    between atoms: _568  and  _569
REMARK  257  A    between atoms: _568  and  _571
REMARK  258  A    between atoms: _571  and  _572
REMARK  259  A    between atoms: _575  and  _577
REMARK  260  A    between atoms: _577  and  _578
REMARK  261  A    between atoms: _581  and  _583
REMARK  262  A    between atoms: _583  and  _584
REMARK  263  A    between atoms: _583  and  _586
REMARK  264  A    between atoms: _589  and  _591
REMARK  265  A    between atoms: _591  and  _592
REMARK  266  A    between atoms: _594  and  _596
REMARK  267  A    between atoms: _596  and  _597
REMARK  268  A    between atoms: _600  and  _602
REMARK  269  A    between atoms: _602  and  _603
REMARK  270  A    between atoms: _602  and  _605
REMARK  271  A    between atoms: _605  and  _606
REMARK                            x       y       z     vdW  Elec       q    Type
REMARK                         _______ _______ _______ _____ _____    ______ ____
ROOT
ATOM      1  CA  LYS A   4      -1.842  14.495 -39.556  0.00  0.00    +0.000 C 
ENDROOT
BRANCH   1   4
ATOM      2  C   LEU A   3      -1.971  12.848 -37.748  0.00  0.00    +0.000 C 
ATOM      3  O   LEU A   3      -3.010  12.355 -38.187  0.00  0.00    +0.000 OA
ATOM      4  N   LYS A   4      -1.388  13.913 -38.293  0.00  0.00    +0.000 N 
ATOM      5  H   LYS A   4      -0.580  14.347 -37.803  0.00  0.00    +0.000 HD
BRANCH   2   6
ATOM      6  CA  LEU A   3      -1.280  12.238 -36.526  0.00  0.00    +0.000 C 
BRANCH   6   8
ATOM      7  C   SER A   2       1.106  12.381 -37.002  0.00  0.00    +0.000 C 
ATOM      8  N   LEU A   3       0.049  12.800 -36.313  0.00  0.00    +0.000 N 
ATOM      9  H   LEU A   3       0.173  13.549 -35.602  0.00  0.00    +0.000 HD
ATOM     10  O   SER A   2       1.073  11.437 -37.792  0.00  0.00    +0.000 OA
BRANCH   7  11
ATOM     11  CA  SER A   2       2.399  13.133 -36.754  0.00  0.00    +0.000 C 
BRANCH  11  14
ATOM     12  C   LEU A   1       4.065  12.377 -35.161  0.00  0.00    +0.000 C 
ATOM     13  O   LEU A   1       4.215  13.483 -34.642  0.00  0.00    +0.000 OA
ATOM     14  N   SER A   2       3.403  12.189 -36.296  0.00  0.00    +0.000 N 
ATOM     15  H   SER A   2       3.608  11.347 -36.870  0.00  0.00    +0.000 HD
BRANCH  12  16
ATOM     16  CA  LEU A   1       4.648  11.124 -34.519  0.00  0.00    +0.000 C 
BRANCH  16  17
ATOM     17  N   LEU A   1       5.939  11.354 -33.884  0.00  0.00    +0.000 NA
ATOM     18  H   LEU A   1       6.052  12.176 -33.256  0.00  0.00    +0.000 HD
ENDBRANCH  16  17
BRANCH  16  19
ATOM     19  CB  LEU A   1       3.654  10.587 -33.474  0.00  0.00    +0.000 C 
BRANCH  19  20
ATOM     20  CG  LEU A   1       2.211  10.212 -33.859  0.00  0.00    +0.000 C 
ATOM     21  CD2 LEU A   1       1.369   9.905 -32.618  0.00  0.00    +0.000 C 
ATOM     22  CD1 LEU A   1       2.172   9.025 -34.824  0.00  0.00    +0.000 C 
ENDBRANCH  19  20
ENDBRANCH  16  19
ENDBRANCH  12  16
ENDBRANCH  11  14
BRANCH  11  23
ATOM     23  CB  SER A   2       2.827  13.871 -38.020  0.00  0.00    +0.000 C 
BRANCH  23  24
ATOM     24  OG  SER A   2       1.749  14.656 -38.509  0.00  0.00    +0.000 OA
ATOM     25  H   SER A   2       1.483  15.315 -37.820  0.00  0.00    +0.000 HD
ENDBRANCH  23  24
ENDBRANCH  11  23
ENDBRANCH   7  11
ENDBRANCH   6   8
BRANCH   6  26
ATOM     26  CB  LEU A   3      -2.139  12.382 -35.264  0.00  0.00    +0.000 C 
BRANCH  26  27
ATOM     27  CG  LEU A   3      -1.717  11.458 -34.112  0.00  0.00    +0.000 C 
ATOM     28  CD2 LEU A   3      -2.409  11.835 -32.805  0.00  0.00    +0.000 C 
ATOM     29  CD1 LEU A   3      -1.957   9.975 -34.454  0.00  0.00    +0.000 C 
ENDBRANCH  26  27
ENDBRANCH   6  26
ENDBRANCH   2   6
ENDBRANCH   1   4
BRANCH   1  30
ATOM     30  C   LYS A   4      -1.323  13.694 -40.763  0.00  0.00    +0.000 C 
ATOM     31  N   THR A   5      -0.008  13.481 -40.829  0.00  0.00    +0.000 N 
ATOM     32  H   THR A   5       0.598  13.848 -40.068  0.00  0.00    +0.000 HD
ATOM     33  O   LYS A   4      -2.110  13.271 -41.608  0.00  0.00    +0.000 OA
BRANCH  31  34
ATOM     34  CA  THR A   5       0.616  12.746 -41.939  0.00  0.00    +0.000 C 
BRANCH  34  35
ATOM     35  C   THR A   5       0.628  11.246 -41.662  0.00  0.00    +0.000 C 
ATOM     36  N   UNK A   6       0.391  10.898 -40.398  0.00  0.00    +0.000 N 
ATOM     37  H   UNK A   6       0.159  11.655 -39.723  0.00  0.00    +0.000 HD
ATOM     38  O   THR A   5       0.855  10.437 -42.569  0.00  0.00    +0.000 OA
BRANCH  36  39
ATOM     39  C   UNK A   6       0.435   9.516 -39.890  0.00  0.00    +0.000 C 
BRANCH  39  40
ATOM     40  C   UNK A   6       1.849   8.914 -39.795  0.00  0.00    +0.000 C 
ATOM     41  N   GLU A   7       2.875   9.722 -40.056  0.00  0.00    +0.000 N 
ATOM     42  H   GLU A   7       2.689  10.692 -40.380  0.00  0.00    +0.000 HD
ATOM     43  O   UNK A   6       2.005   7.743 -39.447  0.00  0.00    +0.000 OA
BRANCH  41  44
ATOM     44  CA  GLU A   7       4.259   9.273 -39.896  0.00  0.00    +0.000 C 
BRANCH  44  45
ATOM     45  C   GLU A   7       4.557   8.939 -38.432  0.00  0.00    +0.000 C 
ATOM     46  O   GLU A   7       4.315   9.755 -37.537  0.00  0.00    +0.000 OA
ENDBRANCH  44  45
BRANCH  44  47
ATOM     47  CB  GLU A   7       5.248  10.323 -40.411  0.00  0.00    +0.000 C 
BRANCH  47  48
ATOM     48  CG  GLU A   7       6.709   9.883 -40.270  0.00  0.00    +0.000 C 
BRANCH  48  49
ATOM     49  CD  GLU A   7       7.720  10.929 -40.707  0.00  0.00    +0.000 C 
ATOM     50  OE2 GLU A   7       8.927  10.622 -40.636  0.00  0.00    +0.000 OA
ATOM     51  OE1 GLU A   7       7.329  12.044 -41.115  0.00  0.00    +0.000 OA
ENDBRANCH  48  49
ENDBRANCH  47  48
ENDBRANCH  44  47
ENDBRANCH  41  44
ENDBRANCH  39  40
BRANCH  39  52
ATOM     52  C   UNK A   6      -0.546   8.596 -40.634  0.00  0.00    +0.000 C 
BRANCH  52  53
ATOM     53  C   UNK A   6      -1.998   9.024 -40.502  0.00  0.00    +0.000 C 
BRANCH  53  54
ATOM     54 SE   UNK A   6      -2.581   9.042 -38.630  0.00  0.00    +0.000 Se
ATOM     55  C   UNK A   6      -2.674   7.130 -38.342  0.00  0.00    +0.000 C 
ENDBRANCH  53  54
ENDBRANCH  52  53
ENDBRANCH  39  52
ENDBRANCH  36  39
ENDBRANCH  34  35
BRANCH  34  56
ATOM     56  CB  THR A   5       2.079  13.189 -42.193  0.00  0.00    +0.000 C 
ATOM     57  CG2 THR A   5       2.191  14.711 -42.381  0.00  0.00    +0.000 C 
BRANCH  56  58
ATOM     58  OG1 THR A   5       2.907  12.771 -41.099  0.00  0.00    +0.000 OA
ATOM     59  HG1 THR A   5       3.840  13.056 -41.265  0.00  0.00    +0.000 HD
ENDBRANCH  56  58
ENDBRANCH  34  56
ENDBRANCH  31  34
ENDBRANCH   1  30
BRANCH   1  60
ATOM     60  CB  LYS A   4      -1.415  15.964 -39.649  0.00  0.00    +0.000 C 
BRANCH  60  61
ATOM     61  CG  LYS A   4      -1.986  16.727 -40.844  0.00  0.00    +0.000 C 
BRANCH  61  62
ATOM     62  CD  LYS A   4      -1.693  18.212 -40.696  0.00  0.00    +0.000 C 
BRANCH  62  63
ATOM     63  CE  LYS A   4      -2.503  19.068 -41.664  0.00  0.00    +0.000 C 
BRANCH  63  64
ATOM     64  NZ  LYS A   4      -2.208  20.517 -41.443  0.00  0.00    +0.000 N 
ATOM     65  HZ1 LYS A   4      -2.459  20.776 -40.467  0.00  0.00    +0.000 HD
ATOM     66  HZ2 LYS A   4      -1.195  20.691 -41.600  0.00  0.00    +0.000 HD
ATOM     67  HZ3 LYS A   4      -2.766  21.089 -42.109  0.00  0.00    +0.000 HD
ENDBRANCH  63  64
ENDBRANCH  62  63
ENDBRANCH  61  62
ENDBRANCH  60  61
ENDBRANCH   1  60
TORSDOF 33
REMARK  Name = ../refined-set-2016/2hf8/2hf8_pocket.pdb
REMARK  271 active torsions:
REMARK  status: ('A' for Active; 'I' for Inactive)
REMARK    1  A    between atoms: _1  and  _3
REMARK    2  A    between atoms: _3  and  _4
REMARK    3  A    between atoms: _3  and  _6
REMARK    4  A    between atoms: _6  and  _7
REMARK    5  A    between atoms: _13  and  _15
REMARK    6  A    between atoms: _15  and  _16
REMARK    7  A    between atoms: _15  and  _18
REMARK    8  A    between atoms: _18  and  _19
REMARK    9  A    between atoms: _19  and  _20
REMARK   10  A    between atoms: _22  and  _24
REMARK   11  A    between atoms: _24  and  _25
REMARK   12  A    between atoms: _27  and  _29
REMARK   13  A    between atoms: _29  and  _30
REMARK   14  A    between atoms: _33  and  _35
REMARK   15  A    between atoms: _35  and  _36
REMARK   16  A    between atoms: _35  and  _38
REMARK   17  A    between atoms: _38  and  _39
REMARK   18  A    between atoms: _42  and  _44
REMARK   19  A    between atoms: _44  and  _45
REMARK   20  A    between atoms: _47  and  _49
REMARK   21  A    between atoms: _49  and  _50
REMARK   22  A    between atoms: _49  and  _52
REMARK   23  A    between atoms: _52  and  _53
REMARK   24  A    between atoms: _55  and  _57
REMARK   25  A    between atoms: _57  and  _58
REMARK   26  A    between atoms: _60  and  _62
REMARK   27  A    between atoms: _62  and  _63
REMARK   28  A    between atoms: _62  and  _65
REMARK   29  A    between atoms: _65  and  _66
REMARK   30  A    between atoms: _66  and  _67
REMARK   31  A    between atoms: _67  and  _68
REMARK   32  A    between atoms: _68  and  _69
REMARK   33  A    between atoms: _73  and  _75
REMARK   34  A    between atoms: _75  and  _76
REMARK   35  A    between atoms: _75  and  _78
REMARK   36  A    between atoms: _78  and  _79
REMARK   37  A    between atoms: _82  and  _84
REMARK   38  A    between atoms: _84  and  _85
REMARK   39  A    between atoms: _84  and  _87
REMARK   40  A    between atoms: _87  and  _88
REMARK   41  A    between atoms: _91  and  _93
REMARK   42  A    between atoms: _93  and  _94
REMARK   43  A    between atoms: _93  and  _96
REMARK   44  A    between atoms: _96  and  _97
REMARK   45  A    between atoms: _100  and  _102
REMARK   46  A    between atoms: _102  and  _103
REMARK   47  A    between atoms: _102  and  _105
REMARK   48  A    between atoms: _105  and  _106
REMARK   49  A    between atoms: _109  and  _111
REMARK   50  A    between atoms: _111  and  _112
REMARK   51  A    between atoms: _111  and  _114
REMARK   52  A    between atoms: _114  and  _115
REMARK   53  A    between atoms: _115  and  _116
REMARK   54  A    between atoms: _119  and  _121
REMARK   55  A    between atoms: _121  and  _122
REMARK   56  A    between atoms: _121  and  _124
REMARK   57  A    between atoms: _124  and  _125
REMARK   58  A    between atoms: _125  and  _126
REMARK   59  A    between atoms: _126  and  _127
REMARK   60  A    between atoms: _127  and  _128
REMARK   61  A    between atoms: _132  and  _134
REMARK   62  A    between atoms: _134  and  _135
REMARK   63  A    between atoms: _137  and  _139
REMARK   64  A    between atoms: _139  and  _140
REMARK   65  A    between atoms: _139  and  _142
REMARK   66  A    between atoms: _142  and  _143
REMARK   67  A    between atoms: _146  and  _148
REMARK   68  A    between atoms: _148  and  _149
REMARK   69  A    between atoms: _148  and  _151
REMARK   70  A    between atoms: _154  and  _156
REMARK   71  A    between atoms: _156  and  _157
REMARK   72  A    between atoms: _156  and  _159
REMARK   73  A    between atoms: _159  and  _160
REMARK   74  A    between atoms: _163  and  _165
REMARK   75  A    between atoms: _165  and  _166
REMARK   76  A    between atoms: _165  and  _168
REMARK   77  A    between atoms: _168  and  _169
REMARK   78  A    between atoms: _175  and  _177
REMARK   79  A    between atoms: _177  and  _178
REMARK   80  A    between atoms: _177  and  _180
REMARK   81  A    between atoms: _180  and  _181
REMARK   82  A    between atoms: _181  and  _183
REMARK   83  A    between atoms: _183  and  MG_609
REMARK   84  A    between atoms: _184  and  _186
REMARK   85  A    between atoms: _186  and  _187
REMARK   86  A    between atoms: _186  and  _189
REMARK   87  A    between atoms: _189  and  _190
REMARK   88  A    between atoms: _190  and  _191
REMARK   89  A    between atoms: _191  and  _192
REMARK   90  A    between atoms: _201  and  _203
REMARK   91  A    between atoms: _203  and  _204
REMARK   92  A    between atoms: _203  and  _206
REMARK   93  A    between atoms: _206  and  _207
REMARK   94  A    between atoms: _207  and  _208
REMARK   95  A    between atoms: _210  and  _212
REMARK   96  A    between atoms: _212  and  _213
REMARK   97  A    between atoms: _212  and  _215
REMARK   98  A    between atoms: _215  and  _216
REMARK   99  A    between atoms: _216  and  _217
REMARK  100  A    between atoms: _220  and  _222
REMARK  101  A    between atoms: _222  and  _223
REMARK  102  A    between atoms: _222  and  _225
REMARK  103  A    between atoms: _225  and  _226
REMARK  104  A    between atoms: _231  and  _233
REMARK  105  A    between atoms: _233  and  _234
REMARK  106  A    between atoms: _233  and  _236
REMARK  107  A    between atoms: _239  and  _241
REMARK  108  A    between atoms: _241  and  _242
REMARK  109  A    between atoms: _244  and  _246
REMARK  110  A    between atoms: _246  and  _247
REMARK  111  A    between atoms: _246  and  _249
REMARK  112  A    between atoms: _249  and  _250
REMARK  113  A    between atoms: _255  and  _257
REMARK  114  A    between atoms: _257  and  _258
REMARK  115  A    between atoms: _257  and  _260
REMARK  116  A    between atoms: _263  and  _265
REMARK  117  A    between atoms: _265  and  _266
REMARK  118  A    between atoms: _265  and  _268
REMARK  119  A    between atoms: _268  and  _269
REMARK  120  A    between atoms: _272  and  _274
REMARK  121  A    between atoms: _274  and  _275
REMARK  122  A    between atoms: _274  and  _277
REMARK  123  A    between atoms: _277  and  _278
REMARK  124  A    between atoms: _280  and  _282
REMARK  125  A    between atoms: _282  and  _283
REMARK  126  A    between atoms: _282  and  _285
REMARK  127  A    between atoms: _285  and  _286
REMARK  128  A    between atoms: _289  and  _291
REMARK  129  A    between atoms: _291  and  _292
REMARK  130  A    between atoms: _291  and  _294
REMARK  131  A    between atoms: _294  and  _295
REMARK  132  A    between atoms: _298  and  _300
REMARK  133  A    between atoms: _300  and  _301
REMARK  134  A    between atoms: _300  and  _303
REMARK  135  A    between atoms: _303  and  _304
REMARK  136  A    between atoms: _304  and  _305
REMARK  137  A    between atoms: _308  and  _310
REMARK  138  A    between atoms: _310  and  _311
REMARK  139  A    between atoms: _310  and  _313
REMARK  140  A    between atoms: _313  and  _314
REMARK  141  A    between atoms: _317  and  _319
REMARK  142  A    between atoms: _319  and  _320
REMARK  143  A    between atoms: _319  and  _322
REMARK  144  A    between atoms: _322  and  _323
REMARK  145  A    between atoms: _328  and  _330
REMARK  146  A    between atoms: _330  and  _331
REMARK  147  A    between atoms: _330  and  _333
REMARK  148  A    between atoms: _333  and  _334
REMARK  149  A    between atoms: _334  and  _335
REMARK  150  A    between atoms: _335  and  _336
REMARK  151  A    between atoms: _336  and  _337
REMARK  152  A    between atoms: _341  and  _343
REMARK  153  A    between atoms: _343  and  _344
REMARK  154  A    between atoms: _343  and  _346
REMARK  155  A    between atoms: _346  and  _347
REMARK  156  A    between atoms: _350  and  _352
REMARK  157  A    between atoms: _352  and  _353
REMARK  158  A    between atoms: _352  and  _355
REMARK  159  A    between atoms: _355  and  _356
REMARK  160  A    between atoms: _359  and  _361
REMARK  161  A    between atoms: _361  and  _362
REMARK  162  A    between atoms: _361  and  _364
REMARK  163  A    between atoms: _364  and  _365
REMARK  164  A    between atoms: _368  and  _370
REMARK  165  A    between atoms: _370  and  _371
REMARK  166  A    between atoms: _374  and  _376
REMARK  167  A    between atoms: _376  and  _377
REMARK  168  A    between atoms: _376  and  _379
REMARK  169  A    between atoms: _379  and  _380
REMARK  170  A    between atoms: _383  and  _385
REMARK  171  A    between atoms: _385  and  _386
REMARK  172  A    between atoms: _385  and  _388
REMARK  173  A    between atoms: _388  and  _389
REMARK  174  A    between atoms: _391  and  _393
REMARK  175  A    between atoms: _393  and  _394
REMARK  176  A    between atoms: _393  and  _396
REMARK  177  A    between atoms: _396  and  _397
REMARK  178  A    between atoms: _400  and  _402
REMARK  179  A    between atoms: _402  and  _403
REMARK  180  A    between atoms: _402  and  _405
REMARK  181  A    between atoms: _405  and  _406
REMARK  182  A    between atoms: _406  and  _407
REMARK  183  A    between atoms: _407  and  _408
REMARK  184  A    between atoms: _408  and  _409
REMARK  185  A    between atoms: _413  and  _415
REMARK  186  A    between atoms: _415  and  _416
REMARK  187  A    between atoms: _415  and  _418
REMARK  188  A    between atoms: _418  and  _419
REMARK  189  A    between atoms: _422  and  _424
REMARK  190  A    between atoms: _424  and  _425
REMARK  191  A    between atoms: _424  and  _427
REMARK  192  A    between atoms: _427  and  _428
REMARK  193  A    between atoms: _428  and  _429
REMARK  194  A    between atoms: _431  and  _433
REMARK  195  A    between atoms: _433  and  _434
REMARK  196  A    between atoms: _433  and  _436
REMARK  197  A    between atoms: _436  and  _437
REMARK  198  A    between atoms: _437  and  _438
REMARK  199  A    between atoms: _441  and  _443
REMARK  200  A    between atoms: _443  and  _444
REMARK  201  A    between atoms: _443  and  _446
REMARK  202  A    between atoms: _446  and  _447
REMARK  203  A    between atoms: _450  and  _452
REMARK  204  A    between atoms: _452  and  _453
REMARK  205  A    between atoms: _452  and  _455
REMARK  206  A    between atoms: _455  and  _456
REMARK  207  A    between atoms: _458  and  _460
REMARK  208  A    between atoms: _460  and  _461
REMARK  209  A    between atoms: _460  and  _463
REMARK  210  A    between atoms: _463  and  _464
REMARK  211  A    between atoms: _467  and  _469
REMARK  212  A    between atoms: _469  and  _470
REMARK  213  A    between atoms: _469  and  _472
REMARK  214  A    between atoms: _472  and  _473
REMARK  215  A    between atoms: _476  and  _478
REMARK  216  A    between atoms: _478  and  _479
REMARK  217  A    between atoms: _478  and  _481
REMARK  218  A    between atoms: _481  and  _482
REMARK  219  A    between atoms: _482  and  _483
REMARK  220  A    between atoms: _486  and  _488
REMARK  221  A    between atoms: _488  and  _489
REMARK  222  A    between atoms: _491  and  _493
REMARK  223  A    between atoms: _493  and  _494
REMARK  224  A    between atoms: _493  and  _496
REMARK  225  A    between atoms: _496  and  _497
REMARK  226  A    between atoms: _500  and  _502
REMARK  227  A    between atoms: _502  and  _503
REMARK  228  A    between atoms: _502  and  _505
REMARK  229  A    between atoms: _505  and  _506
REMARK  230  A    between atoms: _509  and  _511
REMARK  231  A    between atoms: _511  and  _512
REMARK  232  A    between atoms: _511  and  _514
REMARK  233  A    between atoms: _514  and  _515
REMARK  234  A    between atoms: _518  and  _520
REMARK  235  A    between atoms: _520  and  _521
REMARK  236  A    between atoms: _520  and  _523
REMARK  237  A    between atoms: _523  and  _524
REMARK  238  A    between atoms: _527  and  _529
REMARK  239  A    between atoms: _529  and  _530
REMARK  240  A    between atoms: _529  and  _532
REMARK  241  A    between atoms: _532  and  _533
REMARK  242  A    between atoms: _533  and  _534
REMARK  243  A    between atoms: _534  and  _535
REMARK  244  A    between atoms: _535  and  _536
REMARK  245  A    between atoms: _540  and  _542
REMARK  246  A    between atoms: _542  and  _543
REMARK  247  A    between atoms: _542  and  _545
REMARK  248  A    between atoms: _545  and  _546
REMARK  249  A    between atoms: _551  and  _553
REMARK  250  A    between atoms: _553  and  _554
REMARK  251  A    between atoms: _553  and  _556
REMARK  252  A    between atoms: _556  and  _557
REMARK  253  A    between atoms: _560  and  _562
REMARK  254  A    between atoms: _562  and  _563
REMARK  255  A    between atoms: _566  and  _568
REMARK  256  A    between atoms: _568  and  _569
REMARK  257  A    between atoms: _568  and  _571
REMARK  258  A    between atoms: _571  and  _572
REMARK  259  A    between atoms: _575  and  _577
REMARK  260  A    between atoms: _577  and  _578
REMARK  261  A    between atoms: _581  and  _583
REMARK  262  A    between atoms: _583  and  _584
REMARK  263  A    between atoms: _583  and  _586
REMARK  264  A    between atoms: _589  and  _591
REMARK  265  A    between atoms: _591  and  _592
REMARK  266  A    between atoms: _594  and  _596
REMARK  267  A    between atoms: _596  and  _597
REMARK  268  A    between atoms: _600  and  _602
REMARK  269  A    between atoms: _602  and  _603
REMARK  270  A    between atoms: _602  and  _605
REMARK  271  A    between atoms: _605  and  _606
REMARK                            x       y       z     vdW  Elec       q    Type
REMARK                         _______ _______ _______ _____ _____    ______ ____
ROOT
ATOM      1  CA  LEU A   1      -5.899  24.984 -16.905  0.00  0.00    +0.133 C 
ENDROOT
BRANCH   1   2
ATOM      2  N   LEU A   1      -4.598  24.348 -16.702  0.00  0.00    -0.239 NA
ATOM      3  H   LEU A   1      -4.461  23.364 -17.010  0.00  0.00    +0.142 HD
ENDBRANCH   1   2
BRANCH   1   4
ATOM      4  C   LEU A   1      -6.954  24.573 -15.885  0.00  0.00    +0.224 C 
ATOM      5  O   LEU A   1      -8.138  24.876 -16.059  0.00  0.00    -0.287 OA
ENDBRANCH   1   4
BRANCH   1   6
ATOM      6  CB  LEU A   1      -6.415  24.724 -18.326  0.00  0.00    +0.025 C 
BRANCH   6   7
ATOM      7  CG  LEU A   1      -5.809  25.522 -19.481  0.00  0.00    +0.002 C 
ATOM      8  CD2 LEU A   1      -5.855  27.036 -19.223  0.00  0.00    +0.000 C 
ATOM      9  CD1 LEU A   1      -6.534  25.173 -20.762  0.00  0.00    +0.000 C 
ENDBRANCH   6   7
ENDBRANCH   1   6
TORSDOF 4
REMARK  Name = ../refined-set-2016/2hf8/2hf8_pocket.pdb
REMARK  271 active torsions:
REMARK  status: ('A' for Active; 'I' for Inactive)
REMARK    1  A    between atoms: _1  and  _3
REMARK    2  A    between atoms: _3  and  _4
REMARK    3  A    between atoms: _3  and  _6
REMARK    4  A    between atoms: _6  and  _7
REMARK    5  A    between atoms: _13  and  _15
REMARK    6  A    between atoms: _15  and  _16
REMARK    7  A    between atoms: _15  and  _18
REMARK    8  A    between atoms: _18  and  _19
REMARK    9  A    between atoms: _19  and  _20
REMARK   10  A    between atoms: _22  and  _24
REMARK   11  A    between atoms: _24  and  _25
REMARK   12  A    between atoms: _27  and  _29
REMARK   13  A    between atoms: _29  and  _30
REMARK   14  A    between atoms: _33  and  _35
REMARK   15  A    between atoms: _35  and  _36
REMARK   16  A    between atoms: _35  and  _38
REMARK   17  A    between atoms: _38  and  _39
REMARK   18  A    between atoms: _42  and  _44
REMARK   19  A    between atoms: _44  and  _45
REMARK   20  A    between atoms: _47  and  _49
REMARK   21  A    between atoms: _49  and  _50
REMARK   22  A    between atoms: _49  and  _52
REMARK   23  A    between atoms: _52  and  _53
REMARK   24  A    between atoms: _55  and  _57
REMARK   25  A    between atoms: _57  and  _58
REMARK   26  A    between atoms: _60  and  _62
REMARK   27  A    between atoms: _62  and  _63
REMARK   28  A    between atoms: _62  and  _65
REMARK   29  A    between atoms: _65  and  _66
REMARK   30  A    between atoms: _66  and  _67
REMARK   31  A    between atoms: _67  and  _68
REMARK   32  A    between atoms: _68  and  _69
REMARK   33  A    between atoms: _73  and  _75
REMARK   34  A    between atoms: _75  and  _76
REMARK   35  A    between atoms: _75  and  _78
REMARK   36  A    between atoms: _78  and  _79
REMARK   37  A    between atoms: _82  and  _84
REMARK   38  A    between atoms: _84  and  _85
REMARK   39  A    between atoms: _84  and  _87
REMARK   40  A    between atoms: _87  and  _88
REMARK   41  A    between atoms: _91  and  _93
REMARK   42  A    between atoms: _93  and  _94
REMARK   43  A    between atoms: _93  and  _96
REMARK   44  A    between atoms: _96  and  _97
REMARK   45  A    between atoms: _100  and  _102
REMARK   46  A    between atoms: _102  and  _103
REMARK   47  A    between atoms: _102  and  _105
REMARK   48  A    between atoms: _105  and  _106
REMARK   49  A    between atoms: _109  and  _111
REMARK   50  A    between atoms: _111  and  _112
REMARK   51  A    between atoms: _111  and  _114
REMARK   52  A    between atoms: _114  and  _115
REMARK   53  A    between atoms: _115  and  _116
REMARK   54  A    between atoms: _119  and  _121
REMARK   55  A    between atoms: _121  and  _122
REMARK   56  A    between atoms: _121  and  _124
REMARK   57  A    between atoms: _124  and  _125
REMARK   58  A    between atoms: _125  and  _126
REMARK   59  A    between atoms: _126  and  _127
REMARK   60  A    between atoms: _127  and  _128
REMARK   61  A    between atoms: _132  and  _134
REMARK   62  A    between atoms: _134  and  _135
REMARK   63  A    between atoms: _137  and  _139
REMARK   64  A    between atoms: _139  and  _140
REMARK   65  A    between atoms: _139  and  _142
REMARK   66  A    between atoms: _142  and  _143
REMARK   67  A    between atoms: _146  and  _148
REMARK   68  A    between atoms: _148  and  _149
REMARK   69  A    between atoms: _148  and  _151
REMARK   70  A    between atoms: _154  and  _156
REMARK   71  A    between atoms: _156  and  _157
REMARK   72  A    between atoms: _156  and  _159
REMARK   73  A    between atoms: _159  and  _160
REMARK   74  A    between atoms: _163  and  _165
REMARK   75  A    between atoms: _165  and  _166
REMARK   76  A    between atoms: _165  and  _168
REMARK   77  A    between atoms: _168  and  _169
REMARK   78  A    between atoms: _175  and  _177
REMARK   79  A    between atoms: _177  and  _178
REMARK   80  A    between atoms: _177  and  _180
REMARK   81  A    between atoms: _180  and  _181
REMARK   82  A    between atoms: _181  and  _183
REMARK   83  A    between atoms: _183  and  MG_609
REMARK   84  A    between atoms: _184  and  _186
REMARK   85  A    between atoms: _186  and  _187
REMARK   86  A    between atoms: _186  and  _189
REMARK   87  A    between atoms: _189  and  _190
REMARK   88  A    between atoms: _190  and  _191
REMARK   89  A    between atoms: _191  and  _192
REMARK   90  A    between atoms: _201  and  _203
REMARK   91  A    between atoms: _203  and  _204
REMARK   92  A    between atoms: _203  and  _206
REMARK   93  A    between atoms: _206  and  _207
REMARK   94  A    between atoms: _207  and  _208
REMARK   95  A    between atoms: _210  and  _212
REMARK   96  A    between atoms: _212  and  _213
REMARK   97  A    between atoms: _212  and  _215
REMARK   98  A    between atoms: _215  and  _216
REMARK   99  A    between atoms: _216  and  _217
REMARK  100  A    between atoms: _220  and  _222
REMARK  101  A    between atoms: _222  and  _223
REMARK  102  A    between atoms: _222  and  _225
REMARK  103  A    between atoms: _225  and  _226
REMARK  104  A    between atoms: _231  and  _233
REMARK  105  A    between atoms: _233  and  _234
REMARK  106  A    between atoms: _233  and  _236
REMARK  107  A    between atoms: _239  and  _241
REMARK  108  A    between atoms: _241  and  _242
REMARK  109  A    between atoms: _244  and  _246
REMARK  110  A    between atoms: _246  and  _247
REMARK  111  A    between atoms: _246  and  _249
REMARK  112  A    between atoms: _249  and  _250
REMARK  113  A    between atoms: _255  and  _257
REMARK  114  A    between atoms: _257  and  _258
REMARK  115  A    between atoms: _257  and  _260
REMARK  116  A    between atoms: _263  and  _265
REMARK  117  A    between atoms: _265  and  _266
REMARK  118  A    between atoms: _265  and  _268
REMARK  119  A    between atoms: _268  and  _269
REMARK  120  A    between atoms: _272  and  _274
REMARK  121  A    between atoms: _274  and  _275
REMARK  122  A    between atoms: _274  and  _277
REMARK  123  A    between atoms: _277  and  _278
REMARK  124  A    between atoms: _280  and  _282
REMARK  125  A    between atoms: _282  and  _283
REMARK  126  A    between atoms: _282  and  _285
REMARK  127  A    between atoms: _285  and  _286
REMARK  128  A    between atoms: _289  and  _291
REMARK  129  A    between atoms: _291  and  _292
REMARK  130  A    between atoms: _291  and  _294
REMARK  131  A    between atoms: _294  and  _295
REMARK  132  A    between atoms: _298  and  _300
REMARK  133  A    between atoms: _300  and  _301
REMARK  134  A    between atoms: _300  and  _303
REMARK  135  A    between atoms: _303  and  _304
REMARK  136  A    between atoms: _304  and  _305
REMARK  137  A    between atoms: _308  and  _310
REMARK  138  A    between atoms: _310  and  _311
REMARK  139  A    between atoms: _310  and  _313
REMARK  140  A    between atoms: _313  and  _314
REMARK  141  A    between atoms: _317  and  _319
REMARK  142  A    between atoms: _319  and  _320
REMARK  143  A    between atoms: _319  and  _322
REMARK  144  A    between atoms: _322  and  _323
REMARK  145  A    between atoms: _328  and  _330
REMARK  146  A    between atoms: _330  and  _331
REMARK  147  A    between atoms: _330  and  _333
REMARK  148  A    between atoms: _333  and  _334
REMARK  149  A    between atoms: _334  and  _335
REMARK  150  A    between atoms: _335  and  _336
REMARK  151  A    between atoms: _336  and  _337
REMARK  152  A    between atoms: _341  and  _343
REMARK  153  A    between atoms: _343  and  _344
REMARK  154  A    between atoms: _343  and  _346
REMARK  155  A    between atoms: _346  and  _347
REMARK  156  A    between atoms: _350  and  _352
REMARK  157  A    between atoms: _352  and  _353
REMARK  158  A    between atoms: _352  and  _355
REMARK  159  A    between atoms: _355  and  _356
REMARK  160  A    between atoms: _359  and  _361
REMARK  161  A    between atoms: _361  and  _362
REMARK  162  A    between atoms: _361  and  _364
REMARK  163  A    between atoms: _364  and  _365
REMARK  164  A    between atoms: _368  and  _370
REMARK  165  A    between atoms: _370  and  _371
REMARK  166  A    between atoms: _374  and  _376
REMARK  167  A    between atoms: _376  and  _377
REMARK  168  A    between atoms: _376  and  _379
REMARK  169  A    between atoms: _379  and  _380
REMARK  170  A    between atoms: _383  and  _385
REMARK  171  A    between atoms: _385  and  _386
REMARK  172  A    between atoms: _385  and  _388
REMARK  173  A    between atoms: _388  and  _389
REMARK  174  A    between atoms: _391  and  _393
REMARK  175  A    between atoms: _393  and  _394
REMARK  176  A    between atoms: _393  and  _396
REMARK  177  A    between atoms: _396  and  _397
REMARK  178  A    between atoms: _400  and  _402
REMARK  179  A    between atoms: _402  and  _403
REMARK  180  A    between atoms: _402  and  _405
REMARK  181  A    between atoms: _405  and  _406
REMARK  182  A    between atoms: _406  and  _407
REMARK  183  A    between atoms: _407  and  _408
REMARK  184  A    between atoms: _408  and  _409
REMARK  185  A    between atoms: _413  and  _415
REMARK  186  A    between atoms: _415  and  _416
REMARK  187  A    between atoms: _415  and  _418
REMARK  188  A    between atoms: _418  and  _419
REMARK  189  A    between atoms: _422  and  _424
REMARK  190  A    between atoms: _424  and  _425
REMARK  191  A    between atoms: _424  and  _427
REMARK  192  A    between atoms: _427  and  _428
REMARK  193  A    between atoms: _428  and  _429
REMARK  194  A    between atoms: _431  and  _433
REMARK  195  A    between atoms: _433  and  _434
REMARK  196  A    between atoms: _433  and  _436
REMARK  197  A    between atoms: _436  and  _437
REMARK  198  A    between atoms: _437  and  _438
REMARK  199  A    between atoms: _441  and  _443
REMARK  200  A    between atoms: _443  and  _444
REMARK  201  A    between atoms: _443  and  _446
REMARK  202  A    between atoms: _446  and  _447
REMARK  203  A    between atoms: _450  and  _452
REMARK  204  A    between atoms: _452  and  _453
REMARK  205  A    between atoms: _452  and  _455
REMARK  206  A    between atoms: _455  and  _456
REMARK  207  A    between atoms: _458  and  _460
REMARK  208  A    between atoms: _460  and  _461
REMARK  209  A    between atoms: _460  and  _463
REMARK  210  A    between atoms: _463  and  _464
REMARK  211  A    between atoms: _467  and  _469
REMARK  212  A    between atoms: _469  and  _470
REMARK  213  A    between atoms: _469  and  _472
REMARK  214  A    between atoms: _472  and  _473
REMARK  215  A    between atoms: _476  and  _478
REMARK  216  A    between atoms: _478  and  _479
REMARK  217  A    between atoms: _478  and  _481
REMARK  218  A    between atoms: _481  and  _482
REMARK  219  A    between atoms: _482  and  _483
REMARK  220  A    between atoms: _486  and  _488
REMARK  221  A    between atoms: _488  and  _489
REMARK  222  A    between atoms: _491  and  _493
REMARK  223  A    between atoms: _493  and  _494
REMARK  224  A    between atoms: _493  and  _496
REMARK  225  A    between atoms: _496  and  _497
REMARK  226  A    between atoms: _500  and  _502
REMARK  227  A    between atoms: _502  and  _503
REMARK  228  A    between atoms: _502  and  _505
REMARK  229  A    between atoms: _505  and  _506
REMARK  230  A    between atoms: _509  and  _511
REMARK  231  A    between atoms: _511  and  _512
REMARK  232  A    between atoms: _511  and  _514
REMARK  233  A    between atoms: _514  and  _515
REMARK  234  A    between atoms: _518  and  _520
REMARK  235  A    between atoms: _520  and  _521
REMARK  236  A    between atoms: _520  and  _523
REMARK  237  A    between atoms: _523  and  _524
REMARK  238  A    between atoms: _527  and  _529
REMARK  239  A    between atoms: _529  and  _530
REMARK  240  A    between atoms: _529  and  _532
REMARK  241  A    between atoms: _532  and  _533
REMARK  242  A    between atoms: _533  and  _534
REMARK  243  A    between atoms: _534  and  _535
REMARK  244  A    between atoms: _535  and  _536
REMARK  245  A    between atoms: _540  and  _542
REMARK  246  A    between atoms: _542  and  _543
REMARK  247  A    between atoms: _542  and  _545
REMARK  248  A    between atoms: _545  and  _546
REMARK  249  A    between atoms: _551  and  _553
REMARK  250  A    between atoms: _553  and  _554
REMARK  251  A    between atoms: _553  and  _556
REMARK  252  A    between atoms: _556  and  _557
REMARK  253  A    between atoms: _560  and  _562
REMARK  254  A    between atoms: _562  and  _563
REMARK  255  A    between atoms: _566  and  _568
REMARK  256  A    between atoms: _568  and  _569
REMARK  257  A    between atoms: _568  and  _571
REMARK  258  A    between atoms: _571  and  _572
REMARK  259  A    between atoms: _575  and  _577
REMARK  260  A    between atoms: _577  and  _578
REMARK  261  A    between atoms: _581  and  _583
REMARK  262  A    between atoms: _583  and  _584
REMARK  263  A    between atoms: _583  and  _586
REMARK  264  A    between atoms: _589  and  _591
REMARK  265  A    between atoms: _591  and  _592
REMARK  266  A    between atoms: _594  and  _596
REMARK  267  A    between atoms: _596  and  _597
REMARK  268  A    between atoms: _600  and  _602
REMARK  269  A    between atoms: _602  and  _603
REMARK  270  A    between atoms: _602  and  _605
REMARK  271  A    between atoms: _605  and  _606
REMARK                            x       y       z     vdW  Elec       q    Type
REMARK                         _______ _______ _______ _____ _____    ______ ____
ROOT
ATOM      1  CA  GLY A   5      -7.661  22.388 -30.133  0.00  0.00    +0.176 C 
ENDROOT
BRANCH   1   4
ATOM      2  C   GLU A   4      -5.801  22.286 -28.540  0.00  0.00    +0.241 C 
ATOM      3  O   GLU A   4      -6.369  21.422 -27.875  0.00  0.00    -0.273 OA
ATOM      4  N   GLY A   5      -6.326  22.786 -29.658  0.00  0.00    -0.295 N 
ATOM      5  H   GLY A   5      -5.778  23.476 -30.210  0.00  0.00    +0.150 HD
BRANCH   2   6
ATOM      6  CA  GLU A   4      -4.425  22.822 -28.110  0.00  0.00    +0.149 C 
BRANCH   6   8
ATOM      7  C   THR A   3      -3.179  23.161 -30.172  0.00  0.00    +0.243 C 
ATOM      8  N   GLU A   4      -3.831  23.667 -29.131  0.00  0.00    -0.297 N 
ATOM      9  H   GLU A   4      -3.919  24.700 -29.045  0.00  0.00    +0.150 HD
ATOM     10  O   THR A   3      -2.923  21.961 -30.278  0.00  0.00    -0.273 OA
BRANCH   7  11
ATOM     11  CA  THR A   3      -2.769  24.157 -31.265  0.00  0.00    +0.176 C 
BRANCH  11  13
ATOM     12  C   THR A   2      -4.664  25.728 -31.297  0.00  0.00    +0.243 C 
ATOM     13  N   THR A   3      -3.368  25.489 -31.090  0.00  0.00    -0.295 N 
ATOM     14  H   THR A   3      -2.757  26.276 -30.793  0.00  0.00    +0.150 HD
ATOM     15  O   THR A   2      -5.482  24.851 -31.571  0.00  0.00    -0.273 OA
BRANCH  12  16
ATOM     16  CA  THR A   2      -5.109  27.182 -31.176  0.00  0.00    +0.176 C 
BRANCH  16  19
ATOM     17  C   SER A   1      -4.231  27.586 -28.910  0.00  0.00    +0.241 C 
ATOM     18  O   SER A   1      -4.781  26.593 -28.421  0.00  0.00    -0.274 OA
ATOM     19  N   THR A   2      -4.316  27.926 -30.197  0.00  0.00    -0.295 N 
ATOM     20  H   THR A   2      -3.791  28.763 -30.521  0.00  0.00    +0.150 HD
BRANCH  17  21
ATOM     21  CA  SER A   1      -3.400  28.517 -28.042  0.00  0.00    +0.174 C 
BRANCH  21  22
ATOM     22  N   SER A   1      -3.825  28.478 -26.655  0.00  0.00    -0.236 NA
ATOM     23  H   SER A   1      -4.010  27.562 -26.199  0.00  0.00    +0.142 HD
ENDBRANCH  21  22
BRANCH  21  24
ATOM     24  CB  SER A   1      -1.907  28.219 -28.168  0.00  0.00    +0.163 C 
BRANCH  24  25
ATOM     25  OG  SER A   1      -1.620  26.887 -27.799  0.00  0.00    -0.380 OA
ATOM     26  H   SER A   1      -1.894  26.740 -26.859  0.00  0.00    +0.211 HD
ENDBRANCH  24  25
ENDBRANCH  21  24
ENDBRANCH  17  21
ENDBRANCH  16  19
BRANCH  16  27
ATOM     27  CB  THR A   2      -5.044  27.828 -32.584  0.00  0.00    +0.137 C 
ATOM     28  CG2 THR A   2      -5.575  29.262 -32.557  0.00  0.00    +0.034 C 
BRANCH  27  29
ATOM     29  OG1 THR A   2      -3.693  27.820 -33.064  0.00  0.00    -0.382 OA
ATOM     30  HG1 THR A   2      -3.661  28.234 -33.963  0.00  0.00    +0.210 HD
ENDBRANCH  27  29
ENDBRANCH  16  27
ENDBRANCH  12  16
ENDBRANCH  11  13
BRANCH  11  31
ATOM     31  CB  THR A   3      -1.224  24.237 -31.373  0.00  0.00    +0.137 C 
ATOM     32  CG2 THR A   3      -0.814  25.041 -32.597  0.00  0.00    +0.034 C 
BRANCH  31  33
ATOM     33  OG1 THR A   3      -0.677  24.849 -30.198  0.00  0.00    -0.382 OA
ATOM     34  HG1 THR A   3      -0.920  24.310 -29.403  0.00  0.00    +0.210 HD
ENDBRANCH  31  33
ENDBRANCH  11  31
ENDBRANCH   7  11
ENDBRANCH   6   8
BRANCH   6  35
ATOM     35  CB  GLU A   4      -4.525  23.586 -26.788  0.00  0.00    +0.041 C 
BRANCH  35  36
ATOM     36  CG  GLU A   4      -3.170  23.978 -26.200  0.00  0.00    +0.116 C 
BRANCH  36  37
ATOM     37  CD  GLU A   4      -3.178  25.360 -25.554  0.00  0.00    +0.365 C 
ATOM     38  OE2 GLU A   4      -4.251  25.816 -25.100  0.00  0.00    -0.246 OA
ATOM     39  OE1 GLU A   4      -2.101  25.994 -25.509  0.00  0.00    -0.246 OA
ENDBRANCH  36  37
ENDBRANCH  35  36
ENDBRANCH   6  35
ENDBRANCH   2   6
ENDBRANCH   1   4
BRANCH   1  40
ATOM     40  C   GLY A   5      -8.703  23.441 -29.802  0.00  0.00    +0.243 C 
ATOM     41  O   GLY A   5      -8.568  24.153 -28.808  0.00  0.00    -0.273 OA
ATOM     42  N   ASP A   6      -9.749  23.539 -30.624  0.00  0.00    -0.296 N 
ATOM     43  H   ASP A   6      -9.866  22.845 -31.389  0.00  0.00    +0.150 HD
BRANCH  42  44
ATOM     44  CA  ASP A   6     -10.737  24.612 -30.464  0.00  0.00    +0.160 C 
BRANCH  44  45
ATOM     45  C   ASP A   6     -11.841  24.320 -29.439  0.00  0.00    +0.241 C 
ATOM     46  N   ASP A   7     -11.746  23.174 -28.765  0.00  0.00    -0.297 N 
ATOM     47  H   ASP A   7     -11.025  22.481 -29.050  0.00  0.00    +0.150 HD
ATOM     48  O   ASP A   6     -12.754  25.127 -29.265  0.00  0.00    -0.273 OA
BRANCH  46  49
ATOM     49  CA  ASP A   7     -12.625  22.859 -27.634  0.00  0.00    +0.160 C 
BRANCH  49  50
ATOM     50  C   ASP A   7     -12.021  23.261 -26.281  0.00  0.00    +0.241 C 
ATOM     51  O   ASP A   7     -12.685  23.156 -25.254  0.00  0.00    -0.273 OA
ATOM     52  N   THR A   8     -10.775  23.736 -26.293  0.00  0.00    -0.295 N 
ATOM     53  H   THR A   8     -10.319  23.913 -27.211  0.00  0.00    +0.150 HD
BRANCH  52  54
ATOM     54  CA  THR A   8     -10.016  24.021 -25.064  0.00  0.00    +0.176 C 
BRANCH  54  55
ATOM     55  C   THR A   8     -10.703  25.030 -24.132  0.00  0.00    +0.243 C 
ATOM     56  O   THR A   8     -10.676  24.873 -22.908  0.00  0.00    -0.273 OA
ATOM     57  N   ILE A   9     -11.318  26.055 -24.712  0.00  0.00    -0.298 N 
ATOM     58  H   ILE A   9     -11.326  26.124 -25.750  0.00  0.00    +0.150 HD
BRANCH  57  59
ATOM     59  CA  ILE A   9     -11.984  27.087 -23.920  0.00  0.00    +0.137 C 
BRANCH  59  60
ATOM     60  CB  ILE A   9     -12.240  28.370 -24.752  0.00  0.00    +0.026 C 
ATOM     61  CG2 ILE A   9     -13.239  29.301 -24.052  0.00  0.00    +0.002 C 
BRANCH  60  62
ATOM     62  CG1 ILE A   9     -10.904  29.081 -25.000  0.00  0.00    +0.002 C 
ATOM     63  CD1 ILE A   9     -10.892  30.020 -26.183  0.00  0.00    +0.000 C 
ENDBRANCH  60  62
ENDBRANCH  59  60
BRANCH  59  64
ATOM     64  C   ILE A   9     -13.251  26.567 -23.239  0.00  0.00    +0.227 C 
ATOM     65  O   ILE A   9     -13.434  26.768 -22.033  0.00  0.00    -0.286 OA
ENDBRANCH  59  64
ENDBRANCH  57  59
ENDBRANCH  54  55
BRANCH  54  66
ATOM     66  CB  THR A   8      -8.572  24.489 -25.390  0.00  0.00    +0.137 C 
ATOM     67  CG2 THR A   8      -7.774  24.765 -24.124  0.00  0.00    +0.034 C 
BRANCH  66  68
ATOM     68  OG1 THR A   8      -7.897  23.471 -26.137  0.00  0.00    -0.382 OA
ATOM     69  HG1 THR A   8      -8.388  23.302 -26.980  0.00  0.00    +0.210 HD
ENDBRANCH  66  68
ENDBRANCH  54  66
ENDBRANCH  52  54
ENDBRANCH  49  50
BRANCH  49  70
ATOM     70  CB  ASP A   7     -12.981  21.365 -27.611  0.00  0.00    +0.143 C 
BRANCH  70  71
ATOM     71  CG  ASP A   7     -14.002  20.977 -28.674  0.00  0.00    +0.367 C 
ATOM     72  OD2 ASP A   7     -14.099  19.768 -28.979  0.00  0.00    -0.246 OA
ATOM     73  OD1 ASP A   7     -14.718  21.863 -29.193  0.00  0.00    -0.246 OA
ENDBRANCH  70  71
ENDBRANCH  49  70
ENDBRANCH  46  49
ENDBRANCH  44  45
BRANCH  44  74
ATOM     74  CB  ASP A   6     -11.310  25.092 -31.818  0.00  0.00    +0.143 C 
BRANCH  74  75
ATOM     75  CG  ASP A   6     -11.994  23.990 -32.614  0.00  0.00    +0.367 C 
ATOM     76  OD2 ASP A   6     -12.439  22.982 -32.018  0.00  0.00    -0.246 OA
ATOM     77  OD1 ASP A   6     -12.093  24.145 -33.856  0.00  0.00    -0.246 OA
ENDBRANCH  74  75
ENDBRANCH  44  74
ENDBRANCH  42  44
ENDBRANCH   1  40
TORSDOF 35
REMARK  Name = ../refined-set-2016/2hf8/2hf8_pocket.pdb
REMARK  271 active torsions:
REMARK  status: ('A' for Active; 'I' for Inactive)
REMARK    1  A    between atoms: _1  and  _3
REMARK    2  A    between atoms: _3  and  _4
REMARK    3  A    between atoms: _3  and  _6
REMARK    4  A    between atoms: _6  and  _7
REMARK    5  A    between atoms: _13  and  _15
REMARK    6  A    between atoms: _15  and  _16
REMARK    7  A    between atoms: _15  and  _18
REMARK    8  A    between atoms: _18  and  _19
REMARK    9  A    between atoms: _19  and  _20
REMARK   10  A    between atoms: _22  and  _24
REMARK   11  A    between atoms: _24  and  _25
REMARK   12  A    between atoms: _27  and  _29
REMARK   13  A    between atoms: _29  and  _30
REMARK   14  A    between atoms: _33  and  _35
REMARK   15  A    between atoms: _35  and  _36
REMARK   16  A    between atoms: _35  and  _38
REMARK   17  A    between atoms: _38  and  _39
REMARK   18  A    between atoms: _42  and  _44
REMARK   19  A    between atoms: _44  and  _45
REMARK   20  A    between atoms: _47  and  _49
REMARK   21  A    between atoms: _49  and  _50
REMARK   22  A    between atoms: _49  and  _52
REMARK   23  A    between atoms: _52  and  _53
REMARK   24  A    between atoms: _55  and  _57
REMARK   25  A    between atoms: _57  and  _58
REMARK   26  A    between atoms: _60  and  _62
REMARK   27  A    between atoms: _62  and  _63
REMARK   28  A    between atoms: _62  and  _65
REMARK   29  A    between atoms: _65  and  _66
REMARK   30  A    between atoms: _66  and  _67
REMARK   31  A    between atoms: _67  and  _68
REMARK   32  A    between atoms: _68  and  _69
REMARK   33  A    between atoms: _73  and  _75
REMARK   34  A    between atoms: _75  and  _76
REMARK   35  A    between atoms: _75  and  _78
REMARK   36  A    between atoms: _78  and  _79
REMARK   37  A    between atoms: _82  and  _84
REMARK   38  A    between atoms: _84  and  _85
REMARK   39  A    between atoms: _84  and  _87
REMARK   40  A    between atoms: _87  and  _88
REMARK   41  A    between atoms: _91  and  _93
REMARK   42  A    between atoms: _93  and  _94
REMARK   43  A    between atoms: _93  and  _96
REMARK   44  A    between atoms: _96  and  _97
REMARK   45  A    between atoms: _100  and  _102
REMARK   46  A    between atoms: _102  and  _103
REMARK   47  A    between atoms: _102  and  _105
REMARK   48  A    between atoms: _105  and  _106
REMARK   49  A    between atoms: _109  and  _111
REMARK   50  A    between atoms: _111  and  _112
REMARK   51  A    between atoms: _111  and  _114
REMARK   52  A    between atoms: _114  and  _115
REMARK   53  A    between atoms: _115  and  _116
REMARK   54  A    between atoms: _119  and  _121
REMARK   55  A    between atoms: _121  and  _122
REMARK   56  A    between atoms: _121  and  _124
REMARK   57  A    between atoms: _124  and  _125
REMARK   58  A    between atoms: _125  and  _126
REMARK   59  A    between atoms: _126  and  _127
REMARK   60  A    between atoms: _127  and  _128
REMARK   61  A    between atoms: _132  and  _134
REMARK   62  A    between atoms: _134  and  _135
REMARK   63  A    between atoms: _137  and  _139
REMARK   64  A    between atoms: _139  and  _140
REMARK   65  A    between atoms: _139  and  _142
REMARK   66  A    between atoms: _142  and  _143
REMARK   67  A    between atoms: _146  and  _148
REMARK   68  A    between atoms: _148  and  _149
REMARK   69  A    between atoms: _148  and  _151
REMARK   70  A    between atoms: _154  and  _156
REMARK   71  A    between atoms: _156  and  _157
REMARK   72  A    between atoms: _156  and  _159
REMARK   73  A    between atoms: _159  and  _160
REMARK   74  A    between atoms: _163  and  _165
REMARK   75  A    between atoms: _165  and  _166
REMARK   76  A    between atoms: _165  and  _168
REMARK   77  A    between atoms: _168  and  _169
REMARK   78  A    between atoms: _175  and  _177
REMARK   79  A    between atoms: _177  and  _178
REMARK   80  A    between atoms: _177  and  _180
REMARK   81  A    between atoms: _180  and  _181
REMARK   82  A    between atoms: _181  and  _183
REMARK   83  A    between atoms: _183  and  MG_609
REMARK   84  A    between atoms: _184  and  _186
REMARK   85  A    between atoms: _186  and  _187
REMARK   86  A    between atoms: _186  and  _189
REMARK   87  A    between atoms: _189  and  _190
REMARK   88  A    between atoms: _190  and  _191
REMARK   89  A    between atoms: _191  and  _192
REMARK   90  A    between atoms: _201  and  _203
REMARK   91  A    between atoms: _203  and  _204
REMARK   92  A    between atoms: _203  and  _206
REMARK   93  A    between atoms: _206  and  _207
REMARK   94  A    between atoms: _207  and  _208
REMARK   95  A    between atoms: _210  and  _212
REMARK   96  A    between atoms: _212  and  _213
REMARK   97  A    between atoms: _212  and  _215
REMARK   98  A    between atoms: _215  and  _216
REMARK   99  A    between atoms: _216  and  _217
REMARK  100  A    between atoms: _220  and  _222
REMARK  101  A    between atoms: _222  and  _223
REMARK  102  A    between atoms: _222  and  _225
REMARK  103  A    between atoms: _225  and  _226
REMARK  104  A    between atoms: _231  and  _233
REMARK  105  A    between atoms: _233  and  _234
REMARK  106  A    between atoms: _233  and  _236
REMARK  107  A    between atoms: _239  and  _241
REMARK  108  A    between atoms: _241  and  _242
REMARK  109  A    between atoms: _244  and  _246
REMARK  110  A    between atoms: _246  and  _247
REMARK  111  A    between atoms: _246  and  _249
REMARK  112  A    between atoms: _249  and  _250
REMARK  113  A    between atoms: _255  and  _257
REMARK  114  A    between atoms: _257  and  _258
REMARK  115  A    between atoms: _257  and  _260
REMARK  116  A    between atoms: _263  and  _265
REMARK  117  A    between atoms: _265  and  _266
REMARK  118  A    between atoms: _265  and  _268
REMARK  119  A    between atoms: _268  and  _269
REMARK  120  A    between atoms: _272  and  _274
REMARK  121  A    between atoms: _274  and  _275
REMARK  122  A    between atoms: _274  and  _277
REMARK  123  A    between atoms: _277  and  _278
REMARK  124  A    between atoms: _280  and  _282
REMARK  125  A    between atoms: _282  and  _283
REMARK  126  A    between atoms: _282  and  _285
REMARK  127  A    between atoms: _285  and  _286
REMARK  128  A    between atoms: _289  and  _291
REMARK  129  A    between atoms: _291  and  _292
REMARK  130  A    between atoms: _291  and  _294
REMARK  131  A    between atoms: _294  and  _295
REMARK  132  A    between atoms: _298  and  _300
REMARK  133  A    between atoms: _300  and  _301
REMARK  134  A    between atoms: _300  and  _303
REMARK  135  A    between atoms: _303  and  _304
REMARK  136  A    between atoms: _304  and  _305
REMARK  137  A    between atoms: _308  and  _310
REMARK  138  A    between atoms: _310  and  _311
REMARK  139  A    between atoms: _310  and  _313
REMARK  140  A    between atoms: _313  and  _314
REMARK  141  A    between atoms: _317  and  _319
REMARK  142  A    between atoms: _319  and  _320
REMARK  143  A    between atoms: _319  and  _322
REMARK  144  A    between atoms: _322  and  _323
REMARK  145  A    between atoms: _328  and  _330
REMARK  146  A    between atoms: _330  and  _331
REMARK  147  A    between atoms: _330  and  _333
REMARK  148  A    between atoms: _333  and  _334
REMARK  149  A    between atoms: _334  and  _335
REMARK  150  A    between atoms: _335  and  _336
REMARK  151  A    between atoms: _336  and  _337
REMARK  152  A    between atoms: _341  and  _343
REMARK  153  A    between atoms: _343  and  _344
REMARK  154  A    between atoms: _343  and  _346
REMARK  155  A    between atoms: _346  and  _347
REMARK  156  A    between atoms: _350  and  _352
REMARK  157  A    between atoms: _352  and  _353
REMARK  158  A    between atoms: _352  and  _355
REMARK  159  A    between atoms: _355  and  _356
REMARK  160  A    between atoms: _359  and  _361
REMARK  161  A    between atoms: _361  and  _362
REMARK  162  A    between atoms: _361  and  _364
REMARK  163  A    between atoms: _364  and  _365
REMARK  164  A    between atoms: _368  and  _370
REMARK  165  A    between atoms: _370  and  _371
REMARK  166  A    between atoms: _374  and  _376
REMARK  167  A    between atoms: _376  and  _377
REMARK  168  A    between atoms: _376  and  _379
REMARK  169  A    between atoms: _379  and  _380
REMARK  170  A    between atoms: _383  and  _385
REMARK  171  A    between atoms: _385  and  _386
REMARK  172  A    between atoms: _385  and  _388
REMARK  173  A    between atoms: _388  and  _389
REMARK  174  A    between atoms: _391  and  _393
REMARK  175  A    between atoms: _393  and  _394
REMARK  176  A    between atoms: _393  and  _396
REMARK  177  A    between atoms: _396  and  _397
REMARK  178  A    between atoms: _400  and  _402
REMARK  179  A    between atoms: _402  and  _403
REMARK  180  A    between atoms: _402  and  _405
REMARK  181  A    between atoms: _405  and  _406
REMARK  182  A    between atoms: _406  and  _407
REMARK  183  A    between atoms: _407  and  _408
REMARK  184  A    between atoms: _408  and  _409
REMARK  185  A    between atoms: _413  and  _415
REMARK  186  A    between atoms: _415  and  _416
REMARK  187  A    between atoms: _415  and  _418
REMARK  188  A    between atoms: _418  and  _419
REMARK  189  A    between atoms: _422  and  _424
REMARK  190  A    between atoms: _424  and  _425
REMARK  191  A    between atoms: _424  and  _427
REMARK  192  A    between atoms: _427  and  _428
REMARK  193  A    between atoms: _428  and  _429
REMARK  194  A    between atoms: _431  and  _433
REMARK  195  A    between atoms: _433  and  _434
REMARK  196  A    between atoms: _433  and  _436
REMARK  197  A    between atoms: _436  and  _437
REMARK  198  A    between atoms: _437  and  _438
REMARK  199  A    between atoms: _441  and  _443
REMARK  200  A    between atoms: _443  and  _444
REMARK  201  A    between atoms: _443  and  _446
REMARK  202  A    between atoms: _446  and  _447
REMARK  203  A    between atoms: _450  and  _452
REMARK  204  A    between atoms: _452  and  _453
REMARK  205  A    between atoms: _452  and  _455
REMARK  206  A    between atoms: _455  and  _456
REMARK  207  A    between atoms: _458  and  _460
REMARK  208  A    between atoms: _460  and  _461
REMARK  209  A    between atoms: _460  and  _463
REMARK  210  A    between atoms: _463  and  _464
REMARK  211  A    between atoms: _467  and  _469
REMARK  212  A    between atoms: _469  and  _470
REMARK  213  A    between atoms: _469  and  _472
REMARK  214  A    between atoms: _472  and  _473
REMARK  215  A    between atoms: _476  and  _478
REMARK  216  A    between atoms: _478  and  _479
REMARK  217  A    between atoms: _478  and  _481
REMARK  218  A    between atoms: _481  and  _482
REMARK  219  A    between atoms: _482  and  _483
REMARK  220  A    between atoms: _486  and  _488
REMARK  221  A    between atoms: _488  and  _489
REMARK  222  A    between atoms: _491  and  _493
REMARK  223  A    between atoms: _493  and  _494
REMARK  224  A    between atoms: _493  and  _496
REMARK  225  A    between atoms: _496  and  _497
REMARK  226  A    between atoms: _500  and  _502
REMARK  227  A    between atoms: _502  and  _503
REMARK  228  A    between atoms: _502  and  _505
REMARK  229  A    between atoms: _505  and  _506
REMARK  230  A    between atoms: _509  and  _511
REMARK  231  A    between atoms: _511  and  _512
REMARK  232  A    between atoms: _511  and  _514
REMARK  233  A    between atoms: _514  and  _515
REMARK  234  A    between atoms: _518  and  _520
REMARK  235  A    between atoms: _520  and  _521
REMARK  236  A    between atoms: _520  and  _523
REMARK  237  A    between atoms: _523  and  _524
REMARK  238  A    between atoms: _527  and  _529
REMARK  239  A    between atoms: _529  and  _530
REMARK  240  A    between atoms: _529  and  _532
REMARK  241  A    between atoms: _532  and  _533
REMARK  242  A    between atoms: _533  and  _534
REMARK  243  A    between atoms: _534  and  _535
REMARK  244  A    between atoms: _535  and  _536
REMARK  245  A    between atoms: _540  and  _542
REMARK  246  A    between atoms: _542  and  _543
REMARK  247  A    between atoms: _542  and  _545
REMARK  248  A    between atoms: _545  and  _546
REMARK  249  A    between atoms: _551  and  _553
REMARK  250  A    between atoms: _553  and  _554
REMARK  251  A    between atoms: _553  and  _556
REMARK  252  A    between atoms: _556  and  _557
REMARK  253  A    between atoms: _560  and  _562
REMARK  254  A    between atoms: _562  and  _563
REMARK  255  A    between atoms: _566  and  _568
REMARK  256  A    between atoms: _568  and  _569
REMARK  257  A    between atoms: _568  and  _571
REMARK  258  A    between atoms: _571  and  _572
REMARK  259  A    between atoms: _575  and  _577
REMARK  260  A    between atoms: _577  and  _578
REMARK  261  A    between atoms: _581  and  _583
REMARK  262  A    between atoms: _583  and  _584
REMARK  263  A    between atoms: _583  and  _586
REMARK  264  A    between atoms: _589  and  _591
REMARK  265  A    between atoms: _591  and  _592
REMARK  266  A    between atoms: _594  and  _596
REMARK  267  A    between atoms: _596  and  _597
REMARK  268  A    between atoms: _600  and  _602
REMARK  269  A    between atoms: _602  and  _603
REMARK  270  A    between atoms: _602  and  _605
REMARK  271  A    between atoms: _605  and  _606
REMARK                            x       y       z     vdW  Elec       q    Type
REMARK                         _______ _______ _______ _____ _____    ______ ____
ROOT
ATOM      1  C   LYS A   1     -13.082  22.871 -20.418  0.00  0.00    +0.238 C 
ATOM      2  O   LYS A   1     -12.976  22.065 -19.487  0.00  0.00    -0.274 OA
ATOM      3  N   HIS A   2     -12.776  24.163 -20.287  0.00  0.00    -0.298 N 
ATOM      4  H   HIS A   2     -12.915  24.805 -21.093  0.00  0.00    +0.150 HD
ENDROOT
BRANCH   1   5
ATOM      5  CA  LYS A   1     -13.554  22.398 -21.799  0.00  0.00    +0.145 C 
BRANCH   5   6
ATOM      6  N   LYS A   1     -13.972  23.496 -22.675  0.00  0.00    -0.238 NA
ATOM      7  H   LYS A   1     -13.336  23.785 -23.445  0.00  0.00    +0.142 HD
ENDBRANCH   5   6
BRANCH   5   8
ATOM      8  CB  LYS A   1     -12.425  21.594 -22.445  0.00  0.00    +0.026 C 
BRANCH   8   9
ATOM      9  CG  LYS A   1     -12.865  20.562 -23.471  0.00  0.00    -0.000 C 
BRANCH   9  10
ATOM     10  CD  LYS A   1     -11.652  19.790 -23.979  0.00  0.00    -0.024 C 
BRANCH  10  11
ATOM     11  CE  LYS A   1     -12.015  18.837 -25.093  0.00  0.00    -0.086 C 
BRANCH  11  12
ATOM     12  NZ  LYS A   1     -10.825  18.036 -25.501  0.00  0.00    +0.380 N 
ATOM     13  HZ1 LYS A   1     -10.480  17.490 -24.686  0.00  0.00    -0.089 HD
ATOM     14  HZ2 LYS A   1     -10.075  18.676 -25.833  0.00  0.00    -0.089 HD
ATOM     15  HZ3 LYS A   1     -11.092  17.386 -26.268  0.00  0.00    -0.089 HD
ENDBRANCH  11  12
ENDBRANCH  10  11
ENDBRANCH   9  10
ENDBRANCH   8   9
ENDBRANCH   5   8
ENDBRANCH   1   5
BRANCH   3  16
ATOM     16  CA  HIS A   2     -12.248  24.693 -19.027  0.00  0.00    +0.143 C 
BRANCH  16  17
ATOM     17  C   HIS A   2     -12.931  25.991 -18.586  0.00  0.00    +0.227 C 
ATOM     18  O   HIS A   2     -12.253  27.011 -18.406  0.00  0.00    -0.286 OA
ENDBRANCH  16  17
BRANCH  16  19
ATOM     19  CB  HIS A   2     -10.727  24.894 -19.126  0.00  0.00    +0.075 C 
BRANCH  19  20
ATOM     20  CG  HIS A   2      -9.984  23.684 -19.600  0.00  0.00    +0.082 A 
ATOM     21  CD2 HIS A   2      -9.498  22.614 -18.927  0.00  0.00    +0.115 A 
ATOM     22  NE2 HIS A   2      -8.902  21.790 -19.853  0.00  0.00    -0.221 NA
ATOM     23  CE1 HIS A   2      -9.019  22.335 -21.051  0.00  0.00    +0.199 A 
ATOM     24  ND1 HIS A   2      -9.670  23.478 -20.927  0.00  0.00    -0.227 NA
ENDBRANCH  19  20
ENDBRANCH  16  19
ENDBRANCH   3  16
TORSDOF 11
REMARK  Name = ../refined-set-2016/2hf8/2hf8_pocket.pdb
REMARK  271 active torsions:
REMARK  status: ('A' for Active; 'I' for Inactive)
REMARK    1  A    between atoms: _1  and  _3
REMARK    2  A    between atoms: _3  and  _4
REMARK    3  A    between atoms: _3  and  _6
REMARK    4  A    between atoms: _6  and  _7
REMARK    5  A    between atoms: _13  and  _15
REMARK    6  A    between atoms: _15  and  _16
REMARK    7  A    between atoms: _15  and  _18
REMARK    8  A    between atoms: _18  and  _19
REMARK    9  A    between atoms: _19  and  _20
REMARK   10  A    between atoms: _22  and  _24
REMARK   11  A    between atoms: _24  and  _25
REMARK   12  A    between atoms: _27  and  _29
REMARK   13  A    between atoms: _29  and  _30
REMARK   14  A    between atoms: _33  and  _35
REMARK   15  A    between atoms: _35  and  _36
REMARK   16  A    between atoms: _35  and  _38
REMARK   17  A    between atoms: _38  and  _39
REMARK   18  A    between atoms: _42  and  _44
REMARK   19  A    between atoms: _44  and  _45
REMARK   20  A    between atoms: _47  and  _49
REMARK   21  A    between atoms: _49  and  _50
REMARK   22  A    between atoms: _49  and  _52
REMARK   23  A    between atoms: _52  and  _53
REMARK   24  A    between atoms: _55  and  _57
REMARK   25  A    between atoms: _57  and  _58
REMARK   26  A    between atoms: _60  and  _62
REMARK   27  A    between atoms: _62  and  _63
REMARK   28  A    between atoms: _62  and  _65
REMARK   29  A    between atoms: _65  and  _66
REMARK   30  A    between atoms: _66  and  _67
REMARK   31  A    between atoms: _67  and  _68
REMARK   32  A    between atoms: _68  and  _69
REMARK   33  A    between atoms: _73  and  _75
REMARK   34  A    between atoms: _75  and  _76
REMARK   35  A    between atoms: _75  and  _78
REMARK   36  A    between atoms: _78  and  _79
REMARK   37  A    between atoms: _82  and  _84
REMARK   38  A    between atoms: _84  and  _85
REMARK   39  A    between atoms: _84  and  _87
REMARK   40  A    between atoms: _87  and  _88
REMARK   41  A    between atoms: _91  and  _93
REMARK   42  A    between atoms: _93  and  _94
REMARK   43  A    between atoms: _93  and  _96
REMARK   44  A    between atoms: _96  and  _97
REMARK   45  A    between atoms: _100  and  _102
REMARK   46  A    between atoms: _102  and  _103
REMARK   47  A    between atoms: _102  and  _105
REMARK   48  A    between atoms: _105  and  _106
REMARK   49  A    between atoms: _109  and  _111
REMARK   50  A    between atoms: _111  and  _112
REMARK   51  A    between atoms: _111  and  _114
REMARK   52  A    between atoms: _114  and  _115
REMARK   53  A    between atoms: _115  and  _116
REMARK   54  A    between atoms: _119  and  _121
REMARK   55  A    between atoms: _121  and  _122
REMARK   56  A    between atoms: _121  and  _124
REMARK   57  A    between atoms: _124  and  _125
REMARK   58  A    between atoms: _125  and  _126
REMARK   59  A    between atoms: _126  and  _127
REMARK   60  A    between atoms: _127  and  _128
REMARK   61  A    between atoms: _132  and  _134
REMARK   62  A    between atoms: _134  and  _135
REMARK   63  A    between atoms: _137  and  _139
REMARK   64  A    between atoms: _139  and  _140
REMARK   65  A    between atoms: _139  and  _142
REMARK   66  A    between atoms: _142  and  _143
REMARK   67  A    between atoms: _146  and  _148
REMARK   68  A    between atoms: _148  and  _149
REMARK   69  A    between atoms: _148  and  _151
REMARK   70  A    between atoms: _154  and  _156
REMARK   71  A    between atoms: _156  and  _157
REMARK   72  A    between atoms: _156  and  _159
REMARK   73  A    between atoms: _159  and  _160
REMARK   74  A    between atoms: _163  and  _165
REMARK   75  A    between atoms: _165  and  _166
REMARK   76  A    between atoms: _165  and  _168
REMARK   77  A    between atoms: _168  and  _169
REMARK   78  A    between atoms: _175  and  _177
REMARK   79  A    between atoms: _177  and  _178
REMARK   80  A    between atoms: _177  and  _180
REMARK   81  A    between atoms: _180  and  _181
REMARK   82  A    between atoms: _181  and  _183
REMARK   83  A    between atoms: _183  and  MG_609
REMARK   84  A    between atoms: _184  and  _186
REMARK   85  A    between atoms: _186  and  _187
REMARK   86  A    between atoms: _186  and  _189
REMARK   87  A    between atoms: _189  and  _190
REMARK   88  A    between atoms: _190  and  _191
REMARK   89  A    between atoms: _191  and  _192
REMARK   90  A    between atoms: _201  and  _203
REMARK   91  A    between atoms: _203  and  _204
REMARK   92  A    between atoms: _203  and  _206
REMARK   93  A    between atoms: _206  and  _207
REMARK   94  A    between atoms: _207  and  _208
REMARK   95  A    between atoms: _210  and  _212
REMARK   96  A    between atoms: _212  and  _213
REMARK   97  A    between atoms: _212  and  _215
REMARK   98  A    between atoms: _215  and  _216
REMARK   99  A    between atoms: _216  and  _217
REMARK  100  A    between atoms: _220  and  _222
REMARK  101  A    between atoms: _222  and  _223
REMARK  102  A    between atoms: _222  and  _225
REMARK  103  A    between atoms: _225  and  _226
REMARK  104  A    between atoms: _231  and  _233
REMARK  105  A    between atoms: _233  and  _234
REMARK  106  A    between atoms: _233  and  _236
REMARK  107  A    between atoms: _239  and  _241
REMARK  108  A    between atoms: _241  and  _242
REMARK  109  A    between atoms: _244  and  _246
REMARK  110  A    between atoms: _246  and  _247
REMARK  111  A    between atoms: _246  and  _249
REMARK  112  A    between atoms: _249  and  _250
REMARK  113  A    between atoms: _255  and  _257
REMARK  114  A    between atoms: _257  and  _258
REMARK  115  A    between atoms: _257  and  _260
REMARK  116  A    between atoms: _263  and  _265
REMARK  117  A    between atoms: _265  and  _266
REMARK  118  A    between atoms: _265  and  _268
REMARK  119  A    between atoms: _268  and  _269
REMARK  120  A    between atoms: _272  and  _274
REMARK  121  A    between atoms: _274  and  _275
REMARK  122  A    between atoms: _274  and  _277
REMARK  123  A    between atoms: _277  and  _278
REMARK  124  A    between atoms: _280  and  _282
REMARK  125  A    between atoms: _282  and  _283
REMARK  126  A    between atoms: _282  and  _285
REMARK  127  A    between atoms: _285  and  _286
REMARK  128  A    between atoms: _289  and  _291
REMARK  129  A    between atoms: _291  and  _292
REMARK  130  A    between atoms: _291  and  _294
REMARK  131  A    between atoms: _294  and  _295
REMARK  132  A    between atoms: _298  and  _300
REMARK  133  A    between atoms: _300  and  _301
REMARK  134  A    between atoms: _300  and  _303
REMARK  135  A    between atoms: _303  and  _304
REMARK  136  A    between atoms: _304  and  _305
REMARK  137  A    between atoms: _308  and  _310
REMARK  138  A    between atoms: _310  and  _311
REMARK  139  A    between atoms: _310  and  _313
REMARK  140  A    between atoms: _313  and  _314
REMARK  141  A    between atoms: _317  and  _319
REMARK  142  A    between atoms: _319  and  _320
REMARK  143  A    between atoms: _319  and  _322
REMARK  144  A    between atoms: _322  and  _323
REMARK  145  A    between atoms: _328  and  _330
REMARK  146  A    between atoms: _330  and  _331
REMARK  147  A    between atoms: _330  and  _333
REMARK  148  A    between atoms: _333  and  _334
REMARK  149  A    between atoms: _334  and  _335
REMARK  150  A    between atoms: _335  and  _336
REMARK  151  A    between atoms: _336  and  _337
REMARK  152  A    between atoms: _341  and  _343
REMARK  153  A    between atoms: _343  and  _344
REMARK  154  A    between atoms: _343  and  _346
REMARK  155  A    between atoms: _346  and  _347
REMARK  156  A    between atoms: _350  and  _352
REMARK  157  A    between atoms: _352  and  _353
REMARK  158  A    between atoms: _352  and  _355
REMARK  159  A    between atoms: _355  and  _356
REMARK  160  A    between atoms: _359  and  _361
REMARK  161  A    between atoms: _361  and  _362
REMARK  162  A    between atoms: _361  and  _364
REMARK  163  A    between atoms: _364  and  _365
REMARK  164  A    between atoms: _368  and  _370
REMARK  165  A    between atoms: _370  and  _371
REMARK  166  A    between atoms: _374  and  _376
REMARK  167  A    between atoms: _376  and  _377
REMARK  168  A    between atoms: _376  and  _379
REMARK  169  A    between atoms: _379  and  _380
REMARK  170  A    between atoms: _383  and  _385
REMARK  171  A    between atoms: _385  and  _386
REMARK  172  A    between atoms: _385  and  _388
REMARK  173  A    between atoms: _388  and  _389
REMARK  174  A    between atoms: _391  and  _393
REMARK  175  A    between atoms: _393  and  _394
REMARK  176  A    between atoms: _393  and  _396
REMARK  177  A    between atoms: _396  and  _397
REMARK  178  A    between atoms: _400  and  _402
REMARK  179  A    between atoms: _402  and  _403
REMARK  180  A    between atoms: _402  and  _405
REMARK  181  A    between atoms: _405  and  _406
REMARK  182  A    between atoms: _406  and  _407
REMARK  183  A    between atoms: _407  and  _408
REMARK  184  A    between atoms: _408  and  _409
REMARK  185  A    between atoms: _413  and  _415
REMARK  186  A    between atoms: _415  and  _416
REMARK  187  A    between atoms: _415  and  _418
REMARK  188  A    between atoms: _418  and  _419
REMARK  189  A    between atoms: _422  and  _424
REMARK  190  A    between atoms: _424  and  _425
REMARK  191  A    between atoms: _424  and  _427
REMARK  192  A    between atoms: _427  and  _428
REMARK  193  A    between atoms: _428  and  _429
REMARK  194  A    between atoms: _431  and  _433
REMARK  195  A    between atoms: _433  and  _434
REMARK  196  A    between atoms: _433  and  _436
REMARK  197  A    between atoms: _436  and  _437
REMARK  198  A    between atoms: _437  and  _438
REMARK  199  A    between atoms: _441  and  _443
REMARK  200  A    between atoms: _443  and  _444
REMARK  201  A    between atoms: _443  and  _446
REMARK  202  A    between atoms: _446  and  _447
REMARK  203  A    between atoms: _450  and  _452
REMARK  204  A    between atoms: _452  and  _453
REMARK  205  A    between atoms: _452  and  _455
REMARK  206  A    between atoms: _455  and  _456
REMARK  207  A    between atoms: _458  and  _460
REMARK  208  A    between atoms: _460  and  _461
REMARK  209  A    between atoms: _460  and  _463
REMARK  210  A    between atoms: _463  and  _464
REMARK  211  A    between atoms: _467  and  _469
REMARK  212  A    between atoms: _469  and  _470
REMARK  213  A    between atoms: _469  and  _472
REMARK  214  A    between atoms: _472  and  _473
REMARK  215  A    between atoms: _476  and  _478
REMARK  216  A    between atoms: _478  and  _479
REMARK  217  A    between atoms: _478  and  _481
REMARK  218  A    between atoms: _481  and  _482
REMARK  219  A    between atoms: _482  and  _483
REMARK  220  A    between atoms: _486  and  _488
REMARK  221  A    between atoms: _488  and  _489
REMARK  222  A    between atoms: _491  and  _493
REMARK  223  A    between atoms: _493  and  _494
REMARK  224  A    between atoms: _493  and  _496
REMARK  225  A    between atoms: _496  and  _497
REMARK  226  A    between atoms: _500  and  _502
REMARK  227  A    between atoms: _502  and  _503
REMARK  228  A    between atoms: _502  and  _505
REMARK  229  A    between atoms: _505  and  _506
REMARK  230  A    between atoms: _509  and  _511
REMARK  231  A    between atoms: _511  and  _512
REMARK  232  A    between atoms: _511  and  _514
REMARK  233  A    between atoms: _514  and  _515
REMARK  234  A    between atoms: _518  and  _520
REMARK  235  A    between atoms: _520  and  _521
REMARK  236  A    between atoms: _520  and  _523
REMARK  237  A    between atoms: _523  and  _524
REMARK  238  A    between atoms: _527  and  _529
REMARK  239  A    between atoms: _529  and  _530
REMARK  240  A    between atoms: _529  and  _532
REMARK  241  A    between atoms: _532  and  _533
REMARK  242  A    between atoms: _533  and  _534
REMARK  243  A    between atoms: _534  and  _535
REMARK  244  A    between atoms: _535  and  _536
REMARK  245  A    between atoms: _540  and  _542
REMARK  246  A    between atoms: _542  and  _543
REMARK  247  A    between atoms: _542  and  _545
REMARK  248  A    between atoms: _545  and  _546
REMARK  249  A    between atoms: _551  and  _553
REMARK  250  A    between atoms: _553  and  _554
REMARK  251  A    between atoms: _553  and  _556
REMARK  252  A    between atoms: _556  and  _557
REMARK  253  A    between atoms: _560  and  _562
REMARK  254  A    between atoms: _562  and  _563
REMARK  255  A    between atoms: _566  and  _568
REMARK  256  A    between atoms: _568  and  _569
REMARK  257  A    between atoms: _568  and  _571
REMARK  258  A    between atoms: _571  and  _572
REMARK  259  A    between atoms: _575  and  _577
REMARK  260  A    between atoms: _577  and  _578
REMARK  261  A    between atoms: _581  and  _583
REMARK  262  A    between atoms: _583  and  _584
REMARK  263  A    between atoms: _583  and  _586
REMARK  264  A    between atoms: _589  and  _591
REMARK  265  A    between atoms: _591  and  _592
REMARK  266  A    between atoms: _594  and  _596
REMARK  267  A    between atoms: _596  and  _597
REMARK  268  A    between atoms: _600  and  _602
REMARK  269  A    between atoms: _602  and  _603
REMARK  270  A    between atoms: _602  and  _605
REMARK  271  A    between atoms: _605  and  _606
REMARK                            x       y       z     vdW  Elec       q    Type
REMARK                         _______ _______ _______ _____ _____    ______ ____
ROOT
ATOM      1  C   ALA A   4      -3.224  22.440 -38.529  0.00  0.00    +0.241 C 
ATOM      2  N   VAL A   5      -3.865  22.867 -37.438  0.00  0.00    -0.297 N 
ATOM      3  H   VAL A   5      -3.949  23.890 -37.273  0.00  0.00    +0.150 HD
ATOM      4  O   ALA A   4      -3.054  21.244 -38.782  0.00  0.00    -0.273 OA
ENDROOT
BRANCH   1   5
ATOM      5  CA  ALA A   4      -2.682  23.514 -39.487  0.00  0.00    +0.149 C 
ATOM      6  CB  ALA A   4      -1.246  23.892 -39.109  0.00  0.00    +0.031 C 
BRANCH   5   8
ATOM      7  C   ASP A   3      -4.759  24.713 -40.009  0.00  0.00    +0.241 C 
ATOM      8  N   ALA A   4      -3.506  24.717 -39.567  0.00  0.00    -0.297 N 
ATOM      9  H   ALA A   4      -3.092  25.621 -39.263  0.00  0.00    +0.150 HD
ATOM     10  O   ASP A   3      -5.341  23.692 -40.374  0.00  0.00    -0.273 OA
BRANCH   7  11
ATOM     11  CA  ASP A   3      -5.474  26.069 -40.020  0.00  0.00    +0.160 C 
BRANCH  11  14
ATOM     12  C   ALA A   2      -5.374  26.569 -37.637  0.00  0.00    +0.241 C 
ATOM     13  O   ALA A   2      -5.956  25.522 -37.363  0.00  0.00    -0.273 OA
ATOM     14  N   ASP A   3      -5.077  26.917 -38.888  0.00  0.00    -0.297 N 
ATOM     15  H   ASP A   3      -4.557  27.800 -39.066  0.00  0.00    +0.150 HD
BRANCH  12  16
ATOM     16  CA  ALA A   2      -4.946  27.522 -36.518  0.00  0.00    +0.149 C 
ATOM     17  CB  ALA A   2      -5.894  28.703 -36.433  0.00  0.00    +0.031 C 
BRANCH  16  19
ATOM     18  C   LEU A   1      -2.520  27.142 -36.661  0.00  0.00    +0.238 C 
ATOM     19  N   ALA A   2      -3.553  27.982 -36.619  0.00  0.00    -0.297 N 
ATOM     20  H   ALA A   2      -3.367  29.004 -36.659  0.00  0.00    +0.150 HD
ATOM     21  O   LEU A   1      -2.649  25.917 -36.707  0.00  0.00    -0.274 OA
BRANCH  18  22
ATOM     22  CA  LEU A   1      -1.125  27.771 -36.668  0.00  0.00    +0.145 C 
BRANCH  22  23
ATOM     23  N   LEU A   1      -1.136  29.229 -36.544  0.00  0.00    -0.238 NA
ATOM     24  H   LEU A   1      -1.330  29.661 -35.618  0.00  0.00    +0.142 HD
ENDBRANCH  22  23
BRANCH  22  25
ATOM     25  CB  LEU A   1      -0.257  27.154 -35.571  0.00  0.00    +0.026 C 
BRANCH  25  26
ATOM     26  CG  LEU A   1       1.180  27.669 -35.472  0.00  0.00    +0.002 C 
ATOM     27  CD2 LEU A   1       1.890  26.962 -34.355  0.00  0.00    +0.000 C 
ATOM     28  CD1 LEU A   1       1.909  27.472 -36.783  0.00  0.00    +0.000 C 
ENDBRANCH  25  26
ENDBRANCH  22  25
ENDBRANCH  18  22
ENDBRANCH  16  19
ENDBRANCH  12  16
ENDBRANCH  11  14
BRANCH  11  29
ATOM     29  CB  ASP A   3      -5.257  26.784 -41.362  0.00  0.00    +0.143 C 
BRANCH  29  30
ATOM     30  CG  ASP A   3      -6.237  27.940 -41.590  0.00  0.00    +0.367 C 
ATOM     31  OD2 ASP A   3      -7.243  28.061 -40.850  0.00  0.00    -0.246 OA
ATOM     32  OD1 ASP A   3      -6.000  28.735 -42.530  0.00  0.00    -0.246 OA
ENDBRANCH  29  30
ENDBRANCH  11  29
ENDBRANCH   7  11
ENDBRANCH   5   8
ENDBRANCH   1   5
BRANCH   2  33
ATOM     33  CA  VAL A   5      -4.458  21.937 -36.459  0.00  0.00    +0.149 C 
BRANCH  33  34
ATOM     34  C   VAL A   5      -5.970  21.763 -36.644  0.00  0.00    +0.241 C 
ATOM     35  O   VAL A   5      -6.608  20.996 -35.923  0.00  0.00    -0.273 OA
ATOM     36  N   GLY A   6      -6.541  22.476 -37.609  0.00  0.00    -0.295 N 
ATOM     37  H   GLY A   6      -5.948  23.083 -38.210  0.00  0.00    +0.150 HD
BRANCH  36  38
ATOM     38  CA  GLY A   6      -7.984  22.427 -37.846  0.00  0.00    +0.176 C 
BRANCH  38  39
ATOM     39  C   GLY A   6      -8.824  23.207 -36.842  0.00  0.00    +0.243 C 
ATOM     40  N   ALA A   7      -8.213  24.185 -36.172  0.00  0.00    -0.297 N 
ATOM     41  H   ALA A   7      -7.211  24.379 -36.371  0.00  0.00    +0.150 HD
ATOM     42  O   GLY A   6     -10.016  22.935 -36.690  0.00  0.00    -0.273 OA
BRANCH  40  43
ATOM     43  CA  ALA A   7      -8.907  25.000 -35.160  0.00  0.00    +0.149 C 
ATOM     44  CB  ALA A   7      -7.923  25.545 -34.136  0.00  0.00    +0.031 C 
BRANCH  43  45
ATOM     45  C   ALA A   7      -9.720  26.139 -35.768  0.00  0.00    +0.241 C 
ATOM     46  N   ASP A   8     -10.958  26.274 -35.300  0.00  0.00    -0.298 N 
ATOM     47  H   ASP A   8     -11.314  25.566 -34.626  0.00  0.00    +0.150 HD
ATOM     48  O   ALA A   7      -9.241  26.868 -36.640  0.00  0.00    -0.273 OA
BRANCH  46  49
ATOM     49  CA  ASP A   8     -11.838  27.368 -35.689  0.00  0.00    +0.148 C 
BRANCH  49  50
ATOM     50  C   ASP A   8     -11.689  28.497 -34.667  0.00  0.00    +0.227 C 
ATOM     51  O   ASP A   8     -12.212  28.402 -33.557  0.00  0.00    -0.286 OA
ENDBRANCH  49  50
BRANCH  49  52
ATOM     52  CB  ASP A   8     -13.288  26.859 -35.748  0.00  0.00    +0.142 C 
BRANCH  52  53
ATOM     53  CG  ASP A   8     -14.285  27.920 -36.208  0.00  0.00    +0.367 C 
ATOM     54  OD2 ASP A   8     -13.956  29.121 -36.248  0.00  0.00    -0.246 OA
ATOM     55  OD1 ASP A   8     -15.427  27.538 -36.519  0.00  0.00    -0.246 OA
ENDBRANCH  52  53
ENDBRANCH  49  52
ENDBRANCH  46  49
ENDBRANCH  43  45
ENDBRANCH  40  43
ENDBRANCH  38  39
ENDBRANCH  36  38
ENDBRANCH  33  34
BRANCH  33  56
ATOM     56  CB  VAL A   5      -4.164  22.358 -34.987  0.00  0.00    +0.027 C 
ATOM     57  CG2 VAL A   5      -2.700  22.121 -34.632  0.00  0.00    +0.002 C 
ATOM     58  CG1 VAL A   5      -4.555  23.812 -34.738  0.00  0.00    +0.002 C 
ENDBRANCH  33  56
ENDBRANCH   2  33
TORSDOF 23
REMARK  Name = ../refined-set-2016/2hf8/2hf8_pocket.pdb
REMARK  271 active torsions:
REMARK  status: ('A' for Active; 'I' for Inactive)
REMARK    1  A    between atoms: _1  and  _3
REMARK    2  A    between atoms: _3  and  _4
REMARK    3  A    between atoms: _3  and  _6
REMARK    4  A    between atoms: _6  and  _7
REMARK    5  A    between atoms: _13  and  _15
REMARK    6  A    between atoms: _15  and  _16
REMARK    7  A    between atoms: _15  and  _18
REMARK    8  A    between atoms: _18  and  _19
REMARK    9  A    between atoms: _19  and  _20
REMARK   10  A    between atoms: _22  and  _24
REMARK   11  A    between atoms: _24  and  _25
REMARK   12  A    between atoms: _27  and  _29
REMARK   13  A    between atoms: _29  and  _30
REMARK   14  A    between atoms: _33  and  _35
REMARK   15  A    between atoms: _35  and  _36
REMARK   16  A    between atoms: _35  and  _38
REMARK   17  A    between atoms: _38  and  _39
REMARK   18  A    between atoms: _42  and  _44
REMARK   19  A    between atoms: _44  and  _45
REMARK   20  A    between atoms: _47  and  _49
REMARK   21  A    between atoms: _49  and  _50
REMARK   22  A    between atoms: _49  and  _52
REMARK   23  A    between atoms: _52  and  _53
REMARK   24  A    between atoms: _55  and  _57
REMARK   25  A    between atoms: _57  and  _58
REMARK   26  A    between atoms: _60  and  _62
REMARK   27  A    between atoms: _62  and  _63
REMARK   28  A    between atoms: _62  and  _65
REMARK   29  A    between atoms: _65  and  _66
REMARK   30  A    between atoms: _66  and  _67
REMARK   31  A    between atoms: _67  and  _68
REMARK   32  A    between atoms: _68  and  _69
REMARK   33  A    between atoms: _73  and  _75
REMARK   34  A    between atoms: _75  and  _76
REMARK   35  A    between atoms: _75  and  _78
REMARK   36  A    between atoms: _78  and  _79
REMARK   37  A    between atoms: _82  and  _84
REMARK   38  A    between atoms: _84  and  _85
REMARK   39  A    between atoms: _84  and  _87
REMARK   40  A    between atoms: _87  and  _88
REMARK   41  A    between atoms: _91  and  _93
REMARK   42  A    between atoms: _93  and  _94
REMARK   43  A    between atoms: _93  and  _96
REMARK   44  A    between atoms: _96  and  _97
REMARK   45  A    between atoms: _100  and  _102
REMARK   46  A    between atoms: _102  and  _103
REMARK   47  A    between atoms: _102  and  _105
REMARK   48  A    between atoms: _105  and  _106
REMARK   49  A    between atoms: _109  and  _111
REMARK   50  A    between atoms: _111  and  _112
REMARK   51  A    between atoms: _111  and  _114
REMARK   52  A    between atoms: _114  and  _115
REMARK   53  A    between atoms: _115  and  _116
REMARK   54  A    between atoms: _119  and  _121
REMARK   55  A    between atoms: _121  and  _122
REMARK   56  A    between atoms: _121  and  _124
REMARK   57  A    between atoms: _124  and  _125
REMARK   58  A    between atoms: _125  and  _126
REMARK   59  A    between atoms: _126  and  _127
REMARK   60  A    between atoms: _127  and  _128
REMARK   61  A    between atoms: _132  and  _134
REMARK   62  A    between atoms: _134  and  _135
REMARK   63  A    between atoms: _137  and  _139
REMARK   64  A    between atoms: _139  and  _140
REMARK   65  A    between atoms: _139  and  _142
REMARK   66  A    between atoms: _142  and  _143
REMARK   67  A    between atoms: _146  and  _148
REMARK   68  A    between atoms: _148  and  _149
REMARK   69  A    between atoms: _148  and  _151
REMARK   70  A    between atoms: _154  and  _156
REMARK   71  A    between atoms: _156  and  _157
REMARK   72  A    between atoms: _156  and  _159
REMARK   73  A    between atoms: _159  and  _160
REMARK   74  A    between atoms: _163  and  _165
REMARK   75  A    between atoms: _165  and  _166
REMARK   76  A    between atoms: _165  and  _168
REMARK   77  A    between atoms: _168  and  _169
REMARK   78  A    between atoms: _175  and  _177
REMARK   79  A    between atoms: _177  and  _178
REMARK   80  A    between atoms: _177  and  _180
REMARK   81  A    between atoms: _180  and  _181
REMARK   82  A    between atoms: _181  and  _183
REMARK   83  A    between atoms: _183  and  MG_609
REMARK   84  A    between atoms: _184  and  _186
REMARK   85  A    between atoms: _186  and  _187
REMARK   86  A    between atoms: _186  and  _189
REMARK   87  A    between atoms: _189  and  _190
REMARK   88  A    between atoms: _190  and  _191
REMARK   89  A    between atoms: _191  and  _192
REMARK   90  A    between atoms: _201  and  _203
REMARK   91  A    between atoms: _203  and  _204
REMARK   92  A    between atoms: _203  and  _206
REMARK   93  A    between atoms: _206  and  _207
REMARK   94  A    between atoms: _207  and  _208
REMARK   95  A    between atoms: _210  and  _212
REMARK   96  A    between atoms: _212  and  _213
REMARK   97  A    between atoms: _212  and  _215
REMARK   98  A    between atoms: _215  and  _216
REMARK   99  A    between atoms: _216  and  _217
REMARK  100  A    between atoms: _220  and  _222
REMARK  101  A    between atoms: _222  and  _223
REMARK  102  A    between atoms: _222  and  _225
REMARK  103  A    between atoms: _225  and  _226
REMARK  104  A    between atoms: _231  and  _233
REMARK  105  A    between atoms: _233  and  _234
REMARK  106  A    between atoms: _233  and  _236
REMARK  107  A    between atoms: _239  and  _241
REMARK  108  A    between atoms: _241  and  _242
REMARK  109  A    between atoms: _244  and  _246
REMARK  110  A    between atoms: _246  and  _247
REMARK  111  A    between atoms: _246  and  _249
REMARK  112  A    between atoms: _249  and  _250
REMARK  113  A    between atoms: _255  and  _257
REMARK  114  A    between atoms: _257  and  _258
REMARK  115  A    between atoms: _257  and  _260
REMARK  116  A    between atoms: _263  and  _265
REMARK  117  A    between atoms: _265  and  _266
REMARK  118  A    between atoms: _265  and  _268
REMARK  119  A    between atoms: _268  and  _269
REMARK  120  A    between atoms: _272  and  _274
REMARK  121  A    between atoms: _274  and  _275
REMARK  122  A    between atoms: _274  and  _277
REMARK  123  A    between atoms: _277  and  _278
REMARK  124  A    between atoms: _280  and  _282
REMARK  125  A    between atoms: _282  and  _283
REMARK  126  A    between atoms: _282  and  _285
REMARK  127  A    between atoms: _285  and  _286
REMARK  128  A    between atoms: _289  and  _291
REMARK  129  A    between atoms: _291  and  _292
REMARK  130  A    between atoms: _291  and  _294
REMARK  131  A    between atoms: _294  and  _295
REMARK  132  A    between atoms: _298  and  _300
REMARK  133  A    between atoms: _300  and  _301
REMARK  134  A    between atoms: _300  and  _303
REMARK  135  A    between atoms: _303  and  _304
REMARK  136  A    between atoms: _304  and  _305
REMARK  137  A    between atoms: _308  and  _310
REMARK  138  A    between atoms: _310  and  _311
REMARK  139  A    between atoms: _310  and  _313
REMARK  140  A    between atoms: _313  and  _314
REMARK  141  A    between atoms: _317  and  _319
REMARK  142  A    between atoms: _319  and  _320
REMARK  143  A    between atoms: _319  and  _322
REMARK  144  A    between atoms: _322  and  _323
REMARK  145  A    between atoms: _328  and  _330
REMARK  146  A    between atoms: _330  and  _331
REMARK  147  A    between atoms: _330  and  _333
REMARK  148  A    between atoms: _333  and  _334
REMARK  149  A    between atoms: _334  and  _335
REMARK  150  A    between atoms: _335  and  _336
REMARK  151  A    between atoms: _336  and  _337
REMARK  152  A    between atoms: _341  and  _343
REMARK  153  A    between atoms: _343  and  _344
REMARK  154  A    between atoms: _343  and  _346
REMARK  155  A    between atoms: _346  and  _347
REMARK  156  A    between atoms: _350  and  _352
REMARK  157  A    between atoms: _352  and  _353
REMARK  158  A    between atoms: _352  and  _355
REMARK  159  A    between atoms: _355  and  _356
REMARK  160  A    between atoms: _359  and  _361
REMARK  161  A    between atoms: _361  and  _362
REMARK  162  A    between atoms: _361  and  _364
REMARK  163  A    between atoms: _364  and  _365
REMARK  164  A    between atoms: _368  and  _370
REMARK  165  A    between atoms: _370  and  _371
REMARK  166  A    between atoms: _374  and  _376
REMARK  167  A    between atoms: _376  and  _377
REMARK  168  A    between atoms: _376  and  _379
REMARK  169  A    between atoms: _379  and  _380
REMARK  170  A    between atoms: _383  and  _385
REMARK  171  A    between atoms: _385  and  _386
REMARK  172  A    between atoms: _385  and  _388
REMARK  173  A    between atoms: _388  and  _389
REMARK  174  A    between atoms: _391  and  _393
REMARK  175  A    between atoms: _393  and  _394
REMARK  176  A    between atoms: _393  and  _396
REMARK  177  A    between atoms: _396  and  _397
REMARK  178  A    between atoms: _400  and  _402
REMARK  179  A    between atoms: _402  and  _403
REMARK  180  A    between atoms: _402  and  _405
REMARK  181  A    between atoms: _405  and  _406
REMARK  182  A    between atoms: _406  and  _407
REMARK  183  A    between atoms: _407  and  _408
REMARK  184  A    between atoms: _408  and  _409
REMARK  185  A    between atoms: _413  and  _415
REMARK  186  A    between atoms: _415  and  _416
REMARK  187  A    between atoms: _415  and  _418
REMARK  188  A    between atoms: _418  and  _419
REMARK  189  A    between atoms: _422  and  _424
REMARK  190  A    between atoms: _424  and  _425
REMARK  191  A    between atoms: _424  and  _427
REMARK  192  A    between atoms: _427  and  _428
REMARK  193  A    between atoms: _428  and  _429
REMARK  194  A    between atoms: _431  and  _433
REMARK  195  A    between atoms: _433  and  _434
REMARK  196  A    between atoms: _433  and  _436
REMARK  197  A    between atoms: _436  and  _437
REMARK  198  A    between atoms: _437  and  _438
REMARK  199  A    between atoms: _441  and  _443
REMARK  200  A    between atoms: _443  and  _444
REMARK  201  A    between atoms: _443  and  _446
REMARK  202  A    between atoms: _446  and  _447
REMARK  203  A    between atoms: _450  and  _452
REMARK  204  A    between atoms: _452  and  _453
REMARK  205  A    between atoms: _452  and  _455
REMARK  206  A    between atoms: _455  and  _456
REMARK  207  A    between atoms: _458  and  _460
REMARK  208  A    between atoms: _460  and  _461
REMARK  209  A    between atoms: _460  and  _463
REMARK  210  A    between atoms: _463  and  _464
REMARK  211  A    between atoms: _467  and  _469
REMARK  212  A    between atoms: _469  and  _470
REMARK  213  A    between atoms: _469  and  _472
REMARK  214  A    between atoms: _472  and  _473
REMARK  215  A    between atoms: _476  and  _478
REMARK  216  A    between atoms: _478  and  _479
REMARK  217  A    between atoms: _478  and  _481
REMARK  218  A    between atoms: _481  and  _482
REMARK  219  A    between atoms: _482  and  _483
REMARK  220  A    between atoms: _486  and  _488
REMARK  221  A    between atoms: _488  and  _489
REMARK  222  A    between atoms: _491  and  _493
REMARK  223  A    between atoms: _493  and  _494
REMARK  224  A    between atoms: _493  and  _496
REMARK  225  A    between atoms: _496  and  _497
REMARK  226  A    between atoms: _500  and  _502
REMARK  227  A    between atoms: _502  and  _503
REMARK  228  A    between atoms: _502  and  _505
REMARK  229  A    between atoms: _505  and  _506
REMARK  230  A    between atoms: _509  and  _511
REMARK  231  A    between atoms: _511  and  _512
REMARK  232  A    between atoms: _511  and  _514
REMARK  233  A    between atoms: _514  and  _515
REMARK  234  A    between atoms: _518  and  _520
REMARK  235  A    between atoms: _520  and  _521
REMARK  236  A    between atoms: _520  and  _523
REMARK  237  A    between atoms: _523  and  _524
REMARK  238  A    between atoms: _527  and  _529
REMARK  239  A    between atoms: _529  and  _530
REMARK  240  A    between atoms: _529  and  _532
REMARK  241  A    between atoms: _532  and  _533
REMARK  242  A    between atoms: _533  and  _534
REMARK  243  A    between atoms: _534  and  _535
REMARK  244  A    between atoms: _535  and  _536
REMARK  245  A    between atoms: _540  and  _542
REMARK  246  A    between atoms: _542  and  _543
REMARK  247  A    between atoms: _542  and  _545
REMARK  248  A    between atoms: _545  and  _546
REMARK  249  A    between atoms: _551  and  _553
REMARK  250  A    between atoms: _553  and  _554
REMARK  251  A    between atoms: _553  and  _556
REMARK  252  A    between atoms: _556  and  _557
REMARK  253  A    between atoms: _560  and  _562
REMARK  254  A    between atoms: _562  and  _563
REMARK  255  A    between atoms: _566  and  _568
REMARK  256  A    between atoms: _568  and  _569
REMARK  257  A    between atoms: _568  and  _571
REMARK  258  A    between atoms: _571  and  _572
REMARK  259  A    between atoms: _575  and  _577
REMARK  260  A    between atoms: _577  and  _578
REMARK  261  A    between atoms: _581  and  _583
REMARK  262  A    between atoms: _583  and  _584
REMARK  263  A    between atoms: _583  and  _586
REMARK  264  A    between atoms: _589  and  _591
REMARK  265  A    between atoms: _591  and  _592
REMARK  266  A    between atoms: _594  and  _596
REMARK  267  A    between atoms: _596  and  _597
REMARK  268  A    between atoms: _600  and  _602
REMARK  269  A    between atoms: _602  and  _603
REMARK  270  A    between atoms: _602  and  _605
REMARK  271  A    between atoms: _605  and  _606
REMARK                            x       y       z     vdW  Elec       q    Type
REMARK                         _______ _______ _______ _____ _____    ______ ____
ROOT
ATOM      1  O   HOH     1      -0.802  20.888 -27.056  0.00  0.00    +0.000 OA
ENDROOT
TORSDOF 0
REMARK  Name = ../refined-set-2016/2hf8/2hf8_pocket.pdb
REMARK  271 active torsions:
REMARK  status: ('A' for Active; 'I' for Inactive)
REMARK    1  A    between atoms: _1  and  _3
REMARK    2  A    between atoms: _3  and  _4
REMARK    3  A    between atoms: _3  and  _6
REMARK    4  A    between atoms: _6  and  _7
REMARK    5  A    between atoms: _13  and  _15
REMARK    6  A    between atoms: _15  and  _16
REMARK    7  A    between atoms: _15  and  _18
REMARK    8  A    between atoms: _18  and  _19
REMARK    9  A    between atoms: _19  and  _20
REMARK   10  A    between atoms: _22  and  _24
REMARK   11  A    between atoms: _24  and  _25
REMARK   12  A    between atoms: _27  and  _29
REMARK   13  A    between atoms: _29  and  _30
REMARK   14  A    between atoms: _33  and  _35
REMARK   15  A    between atoms: _35  and  _36
REMARK   16  A    between atoms: _35  and  _38
REMARK   17  A    between atoms: _38  and  _39
REMARK   18  A    between atoms: _42  and  _44
REMARK   19  A    between atoms: _44  and  _45
REMARK   20  A    between atoms: _47  and  _49
REMARK   21  A    between atoms: _49  and  _50
REMARK   22  A    between atoms: _49  and  _52
REMARK   23  A    between atoms: _52  and  _53
REMARK   24  A    between atoms: _55  and  _57
REMARK   25  A    between atoms: _57  and  _58
REMARK   26  A    between atoms: _60  and  _62
REMARK   27  A    between atoms: _62  and  _63
REMARK   28  A    between atoms: _62  and  _65
REMARK   29  A    between atoms: _65  and  _66
REMARK   30  A    between atoms: _66  and  _67
REMARK   31  A    between atoms: _67  and  _68
REMARK   32  A    between atoms: _68  and  _69
REMARK   33  A    between atoms: _73  and  _75
REMARK   34  A    between atoms: _75  and  _76
REMARK   35  A    between atoms: _75  and  _78
REMARK   36  A    between atoms: _78  and  _79
REMARK   37  A    between atoms: _82  and  _84
REMARK   38  A    between atoms: _84  and  _85
REMARK   39  A    between atoms: _84  and  _87
REMARK   40  A    between atoms: _87  and  _88
REMARK   41  A    between atoms: _91  and  _93
REMARK   42  A    between atoms: _93  and  _94
REMARK   43  A    between atoms: _93  and  _96
REMARK   44  A    between atoms: _96  and  _97
REMARK   45  A    between atoms: _100  and  _102
REMARK   46  A    between atoms: _102  and  _103
REMARK   47  A    between atoms: _102  and  _105
REMARK   48  A    between atoms: _105  and  _106
REMARK   49  A    between atoms: _109  and  _111
REMARK   50  A    between atoms: _111  and  _112
REMARK   51  A    between atoms: _111  and  _114
REMARK   52  A    between atoms: _114  and  _115
REMARK   53  A    between atoms: _115  and  _116
REMARK   54  A    between atoms: _119  and  _121
REMARK   55  A    between atoms: _121  and  _122
REMARK   56  A    between atoms: _121  and  _124
REMARK   57  A    between atoms: _124  and  _125
REMARK   58  A    between atoms: _125  and  _126
REMARK   59  A    between atoms: _126  and  _127
REMARK   60  A    between atoms: _127  and  _128
REMARK   61  A    between atoms: _132  and  _134
REMARK   62  A    between atoms: _134  and  _135
REMARK   63  A    between atoms: _137  and  _139
REMARK   64  A    between atoms: _139  and  _140
REMARK   65  A    between atoms: _139  and  _142
REMARK   66  A    between atoms: _142  and  _143
REMARK   67  A    between atoms: _146  and  _148
REMARK   68  A    between atoms: _148  and  _149
REMARK   69  A    between atoms: _148  and  _151
REMARK   70  A    between atoms: _154  and  _156
REMARK   71  A    between atoms: _156  and  _157
REMARK   72  A    between atoms: _156  and  _159
REMARK   73  A    between atoms: _159  and  _160
REMARK   74  A    between atoms: _163  and  _165
REMARK   75  A    between atoms: _165  and  _166
REMARK   76  A    between atoms: _165  and  _168
REMARK   77  A    between atoms: _168  and  _169
REMARK   78  A    between atoms: _175  and  _177
REMARK   79  A    between atoms: _177  and  _178
REMARK   80  A    between atoms: _177  and  _180
REMARK   81  A    between atoms: _180  and  _181
REMARK   82  A    between atoms: _181  and  _183
REMARK   83  A    between atoms: _183  and  MG_609
REMARK   84  A    between atoms: _184  and  _186
REMARK   85  A    between atoms: _186  and  _187
REMARK   86  A    between atoms: _186  and  _189
REMARK   87  A    between atoms: _189  and  _190
REMARK   88  A    between atoms: _190  and  _191
REMARK   89  A    between atoms: _191  and  _192
REMARK   90  A    between atoms: _201  and  _203
REMARK   91  A    between atoms: _203  and  _204
REMARK   92  A    between atoms: _203  and  _206
REMARK   93  A    between atoms: _206  and  _207
REMARK   94  A    between atoms: _207  and  _208
REMARK   95  A    between atoms: _210  and  _212
REMARK   96  A    between atoms: _212  and  _213
REMARK   97  A    between atoms: _212  and  _215
REMARK   98  A    between atoms: _215  and  _216
REMARK   99  A    between atoms: _216  and  _217
REMARK  100  A    between atoms: _220  and  _222
REMARK  101  A    between atoms: _222  and  _223
REMARK  102  A    between atoms: _222  and  _225
REMARK  103  A    between atoms: _225  and  _226
REMARK  104  A    between atoms: _231  and  _233
REMARK  105  A    between atoms: _233  and  _234
REMARK  106  A    between atoms: _233  and  _236
REMARK  107  A    between atoms: _239  and  _241
REMARK  108  A    between atoms: _241  and  _242
REMARK  109  A    between atoms: _244  and  _246
REMARK  110  A    between atoms: _246  and  _247
REMARK  111  A    between atoms: _246  and  _249
REMARK  112  A    between atoms: _249  and  _250
REMARK  113  A    between atoms: _255  and  _257
REMARK  114  A    between atoms: _257  and  _258
REMARK  115  A    between atoms: _257  and  _260
REMARK  116  A    between atoms: _263  and  _265
REMARK  117  A    between atoms: _265  and  _266
REMARK  118  A    between atoms: _265  and  _268
REMARK  119  A    between atoms: _268  and  _269
REMARK  120  A    between atoms: _272  and  _274
REMARK  121  A    between atoms: _274  and  _275
REMARK  122  A    between atoms: _274  and  _277
REMARK  123  A    between atoms: _277  and  _278
REMARK  124  A    between atoms: _280  and  _282
REMARK  125  A    between atoms: _282  and  _283
REMARK  126  A    between atoms: _282  and  _285
REMARK  127  A    between atoms: _285  and  _286
REMARK  128  A    between atoms: _289  and  _291
REMARK  129  A    between atoms: _291  and  _292
REMARK  130  A    between atoms: _291  and  _294
REMARK  131  A    between atoms: _294  and  _295
REMARK  132  A    between atoms: _298  and  _300
REMARK  133  A    between atoms: _300  and  _301
REMARK  134  A    between atoms: _300  and  _303
REMARK  135  A    between atoms: _303  and  _304
REMARK  136  A    between atoms: _304  and  _305
REMARK  137  A    between atoms: _308  and  _310
REMARK  138  A    between atoms: _310  and  _311
REMARK  139  A    between atoms: _310  and  _313
REMARK  140  A    between atoms: _313  and  _314
REMARK  141  A    between atoms: _317  and  _319
REMARK  142  A    between atoms: _319  and  _320
REMARK  143  A    between atoms: _319  and  _322
REMARK  144  A    between atoms: _322  and  _323
REMARK  145  A    between atoms: _328  and  _330
REMARK  146  A    between atoms: _330  and  _331
REMARK  147  A    between atoms: _330  and  _333
REMARK  148  A    between atoms: _333  and  _334
REMARK  149  A    between atoms: _334  and  _335
REMARK  150  A    between atoms: _335  and  _336
REMARK  151  A    between atoms: _336  and  _337
REMARK  152  A    between atoms: _341  and  _343
REMARK  153  A    between atoms: _343  and  _344
REMARK  154  A    between atoms: _343  and  _346
REMARK  155  A    between atoms: _346  and  _347
REMARK  156  A    between atoms: _350  and  _352
REMARK  157  A    between atoms: _352  and  _353
REMARK  158  A    between atoms: _352  and  _355
REMARK  159  A    between atoms: _355  and  _356
REMARK  160  A    between atoms: _359  and  _361
REMARK  161  A    between atoms: _361  and  _362
REMARK  162  A    between atoms: _361  and  _364
REMARK  163  A    between atoms: _364  and  _365
REMARK  164  A    between atoms: _368  and  _370
REMARK  165  A    between atoms: _370  and  _371
REMARK  166  A    between atoms: _374  and  _376
REMARK  167  A    between atoms: _376  and  _377
REMARK  168  A    between atoms: _376  and  _379
REMARK  169  A    between atoms: _379  and  _380
REMARK  170  A    between atoms: _383  and  _385
REMARK  171  A    between atoms: _385  and  _386
REMARK  172  A    between atoms: _385  and  _388
REMARK  173  A    between atoms: _388  and  _389
REMARK  174  A    between atoms: _391  and  _393
REMARK  175  A    between atoms: _393  and  _394
REMARK  176  A    between atoms: _393  and  _396
REMARK  177  A    between atoms: _396  and  _397
REMARK  178  A    between atoms: _400  and  _402
REMARK  179  A    between atoms: _402  and  _403
REMARK  180  A    between atoms: _402  and  _405
REMARK  181  A    between atoms: _405  and  _406
REMARK  182  A    between atoms: _406  and  _407
REMARK  183  A    between atoms: _407  and  _408
REMARK  184  A    between atoms: _408  and  _409
REMARK  185  A    between atoms: _413  and  _415
REMARK  186  A    between atoms: _415  and  _416
REMARK  187  A    between atoms: _415  and  _418
REMARK  188  A    between atoms: _418  and  _419
REMARK  189  A    between atoms: _422  and  _424
REMARK  190  A    between atoms: _424  and  _425
REMARK  191  A    between atoms: _424  and  _427
REMARK  192  A    between atoms: _427  and  _428
REMARK  193  A    between atoms: _428  and  _429
REMARK  194  A    between atoms: _431  and  _433
REMARK  195  A    between atoms: _433  and  _434
REMARK  196  A    between atoms: _433  and  _436
REMARK  197  A    between atoms: _436  and  _437
REMARK  198  A    between atoms: _437  and  _438
REMARK  199  A    between atoms: _441  and  _443
REMARK  200  A    between atoms: _443  and  _444
REMARK  201  A    between atoms: _443  and  _446
REMARK  202  A    between atoms: _446  and  _447
REMARK  203  A    between atoms: _450  and  _452
REMARK  204  A    between atoms: _452  and  _453
REMARK  205  A    between atoms: _452  and  _455
REMARK  206  A    between atoms: _455  and  _456
REMARK  207  A    between atoms: _458  and  _460
REMARK  208  A    between atoms: _460  and  _461
REMARK  209  A    between atoms: _460  and  _463
REMARK  210  A    between atoms: _463  and  _464
REMARK  211  A    between atoms: _467  and  _469
REMARK  212  A    between atoms: _469  and  _470
REMARK  213  A    between atoms: _469  and  _472
REMARK  214  A    between atoms: _472  and  _473
REMARK  215  A    between atoms: _476  and  _478
REMARK  216  A    between atoms: _478  and  _479
REMARK  217  A    between atoms: _478  and  _481
REMARK  218  A    between atoms: _481  and  _482
REMARK  219  A    between atoms: _482  and  _483
REMARK  220  A    between atoms: _486  and  _488
REMARK  221  A    between atoms: _488  and  _489
REMARK  222  A    between atoms: _491  and  _493
REMARK  223  A    between atoms: _493  and  _494
REMARK  224  A    between atoms: _493  and  _496
REMARK  225  A    between atoms: _496  and  _497
REMARK  226  A    between atoms: _500  and  _502
REMARK  227  A    between atoms: _502  and  _503
REMARK  228  A    between atoms: _502  and  _505
REMARK  229  A    between atoms: _505  and  _506
REMARK  230  A    between atoms: _509  and  _511
REMARK  231  A    between atoms: _511  and  _512
REMARK  232  A    between atoms: _511  and  _514
REMARK  233  A    between atoms: _514  and  _515
REMARK  234  A    between atoms: _518  and  _520
REMARK  235  A    between atoms: _520  and  _521
REMARK  236  A    between atoms: _520  and  _523
REMARK  237  A    between atoms: _523  and  _524
REMARK  238  A    between atoms: _527  and  _529
REMARK  239  A    between atoms: _529  and  _530
REMARK  240  A    between atoms: _529  and  _532
REMARK  241  A    between atoms: _532  and  _533
REMARK  242  A    between atoms: _533  and  _534
REMARK  243  A    between atoms: _534  and  _535
REMARK  244  A    between atoms: _535  and  _536
REMARK  245  A    between atoms: _540  and  _542
REMARK  246  A    between atoms: _542  and  _543
REMARK  247  A    between atoms: _542  and  _545
REMARK  248  A    between atoms: _545  and  _546
REMARK  249  A    between atoms: _551  and  _553
REMARK  250  A    between atoms: _553  and  _554
REMARK  251  A    between atoms: _553  and  _556
REMARK  252  A    between atoms: _556  and  _557
REMARK  253  A    between atoms: _560  and  _562
REMARK  254  A    between atoms: _562  and  _563
REMARK  255  A    between atoms: _566  and  _568
REMARK  256  A    between atoms: _568  and  _569
REMARK  257  A    between atoms: _568  and  _571
REMARK  258  A    between atoms: _571  and  _572
REMARK  259  A    between atoms: _575  and  _577
REMARK  260  A    between atoms: _577  and  _578
REMARK  261  A    between atoms: _581  and  _583
REMARK  262  A    between atoms: _583  and  _584
REMARK  263  A    between atoms: _583  and  _586
REMARK  264  A    between atoms: _589  and  _591
REMARK  265  A    between atoms: _591  and  _592
REMARK  266  A    between atoms: _594  and  _596
REMARK  267  A    between atoms: _596  and  _597
REMARK  268  A    between atoms: _600  and  _602
REMARK  269  A    between atoms: _602  and  _603
REMARK  270  A    between atoms: _602  and  _605
REMARK  271  A    between atoms: _605  and  _606
REMARK                            x       y       z     vdW  Elec       q    Type
REMARK                         _______ _______ _______ _____ _____    ______ ____
ROOT
ATOM      1  O   HOH     1      -1.786  13.647 -18.223  0.00  0.00    +0.000 OA
ENDROOT
TORSDOF 0
REMARK  Name = ../refined-set-2016/2hf8/2hf8_pocket.pdb
REMARK  271 active torsions:
REMARK  status: ('A' for Active; 'I' for Inactive)
REMARK    1  A    between atoms: _1  and  _3
REMARK    2  A    between atoms: _3  and  _4
REMARK    3  A    between atoms: _3  and  _6
REMARK    4  A    between atoms: _6  and  _7
REMARK    5  A    between atoms: _13  and  _15
REMARK    6  A    between atoms: _15  and  _16
REMARK    7  A    between atoms: _15  and  _18
REMARK    8  A    between atoms: _18  and  _19
REMARK    9  A    between atoms: _19  and  _20
REMARK   10  A    between atoms: _22  and  _24
REMARK   11  A    between atoms: _24  and  _25
REMARK   12  A    between atoms: _27  and  _29
REMARK   13  A    between atoms: _29  and  _30
REMARK   14  A    between atoms: _33  and  _35
REMARK   15  A    between atoms: _35  and  _36
REMARK   16  A    between atoms: _35  and  _38
REMARK   17  A    between atoms: _38  and  _39
REMARK   18  A    between atoms: _42  and  _44
REMARK   19  A    between atoms: _44  and  _45
REMARK   20  A    between atoms: _47  and  _49
REMARK   21  A    between atoms: _49  and  _50
REMARK   22  A    between atoms: _49  and  _52
REMARK   23  A    between atoms: _52  and  _53
REMARK   24  A    between atoms: _55  and  _57
REMARK   25  A    between atoms: _57  and  _58
REMARK   26  A    between atoms: _60  and  _62
REMARK   27  A    between atoms: _62  and  _63
REMARK   28  A    between atoms: _62  and  _65
REMARK   29  A    between atoms: _65  and  _66
REMARK   30  A    between atoms: _66  and  _67
REMARK   31  A    between atoms: _67  and  _68
REMARK   32  A    between atoms: _68  and  _69
REMARK   33  A    between atoms: _73  and  _75
REMARK   34  A    between atoms: _75  and  _76
REMARK   35  A    between atoms: _75  and  _78
REMARK   36  A    between atoms: _78  and  _79
REMARK   37  A    between atoms: _82  and  _84
REMARK   38  A    between atoms: _84  and  _85
REMARK   39  A    between atoms: _84  and  _87
REMARK   40  A    between atoms: _87  and  _88
REMARK   41  A    between atoms: _91  and  _93
REMARK   42  A    between atoms: _93  and  _94
REMARK   43  A    between atoms: _93  and  _96
REMARK   44  A    between atoms: _96  and  _97
REMARK   45  A    between atoms: _100  and  _102
REMARK   46  A    between atoms: _102  and  _103
REMARK   47  A    between atoms: _102  and  _105
REMARK   48  A    between atoms: _105  and  _106
REMARK   49  A    between atoms: _109  and  _111
REMARK   50  A    between atoms: _111  and  _112
REMARK   51  A    between atoms: _111  and  _114
REMARK   52  A    between atoms: _114  and  _115
REMARK   53  A    between atoms: _115  and  _116
REMARK   54  A    between atoms: _119  and  _121
REMARK   55  A    between atoms: _121  and  _122
REMARK   56  A    between atoms: _121  and  _124
REMARK   57  A    between atoms: _124  and  _125
REMARK   58  A    between atoms: _125  and  _126
REMARK   59  A    between atoms: _126  and  _127
REMARK   60  A    between atoms: _127  and  _128
REMARK   61  A    between atoms: _132  and  _134
REMARK   62  A    between atoms: _134  and  _135
REMARK   63  A    between atoms: _137  and  _139
REMARK   64  A    between atoms: _139  and  _140
REMARK   65  A    between atoms: _139  and  _142
REMARK   66  A    between atoms: _142  and  _143
REMARK   67  A    between atoms: _146  and  _148
REMARK   68  A    between atoms: _148  and  _149
REMARK   69  A    between atoms: _148  and  _151
REMARK   70  A    between atoms: _154  and  _156
REMARK   71  A    between atoms: _156  and  _157
REMARK   72  A    between atoms: _156  and  _159
REMARK   73  A    between atoms: _159  and  _160
REMARK   74  A    between atoms: _163  and  _165
REMARK   75  A    between atoms: _165  and  _166
REMARK   76  A    between atoms: _165  and  _168
REMARK   77  A    between atoms: _168  and  _169
REMARK   78  A    between atoms: _175  and  _177
REMARK   79  A    between atoms: _177  and  _178
REMARK   80  A    between atoms: _177  and  _180
REMARK   81  A    between atoms: _180  and  _181
REMARK   82  A    between atoms: _181  and  _183
REMARK   83  A    between atoms: _183  and  MG_609
REMARK   84  A    between atoms: _184  and  _186
REMARK   85  A    between atoms: _186  and  _187
REMARK   86  A    between atoms: _186  and  _189
REMARK   87  A    between atoms: _189  and  _190
REMARK   88  A    between atoms: _190  and  _191
REMARK   89  A    between atoms: _191  and  _192
REMARK   90  A    between atoms: _201  and  _203
REMARK   91  A    between atoms: _203  and  _204
REMARK   92  A    between atoms: _203  and  _206
REMARK   93  A    between atoms: _206  and  _207
REMARK   94  A    between atoms: _207  and  _208
REMARK   95  A    between atoms: _210  and  _212
REMARK   96  A    between atoms: _212  and  _213
REMARK   97  A    between atoms: _212  and  _215
REMARK   98  A    between atoms: _215  and  _216
REMARK   99  A    between atoms: _216  and  _217
REMARK  100  A    between atoms: _220  and  _222
REMARK  101  A    between atoms: _222  and  _223
REMARK  102  A    between atoms: _222  and  _225
REMARK  103  A    between atoms: _225  and  _226
REMARK  104  A    between atoms: _231  and  _233
REMARK  105  A    between atoms: _233  and  _234
REMARK  106  A    between atoms: _233  and  _236
REMARK  107  A    between atoms: _239  and  _241
REMARK  108  A    between atoms: _241  and  _242
REMARK  109  A    between atoms: _244  and  _246
REMARK  110  A    between atoms: _246  and  _247
REMARK  111  A    between atoms: _246  and  _249
REMARK  112  A    between atoms: _249  and  _250
REMARK  113  A    between atoms: _255  and  _257
REMARK  114  A    between atoms: _257  and  _258
REMARK  115  A    between atoms: _257  and  _260
REMARK  116  A    between atoms: _263  and  _265
REMARK  117  A    between atoms: _265  and  _266
REMARK  118  A    between atoms: _265  and  _268
REMARK  119  A    between atoms: _268  and  _269
REMARK  120  A    between atoms: _272  and  _274
REMARK  121  A    between atoms: _274  and  _275
REMARK  122  A    between atoms: _274  and  _277
REMARK  123  A    between atoms: _277  and  _278
REMARK  124  A    between atoms: _280  and  _282
REMARK  125  A    between atoms: _282  and  _283
REMARK  126  A    between atoms: _282  and  _285
REMARK  127  A    between atoms: _285  and  _286
REMARK  128  A    between atoms: _289  and  _291
REMARK  129  A    between atoms: _291  and  _292
REMARK  130  A    between atoms: _291  and  _294
REMARK  131  A    between atoms: _294  and  _295
REMARK  132  A    between atoms: _298  and  _300
REMARK  133  A    between atoms: _300  and  _301
REMARK  134  A    between atoms: _300  and  _303
REMARK  135  A    between atoms: _303  and  _304
REMARK  136  A    between atoms: _304  and  _305
REMARK  137  A    between atoms: _308  and  _310
REMARK  138  A    between atoms: _310  and  _311
REMARK  139  A    between atoms: _310  and  _313
REMARK  140  A    between atoms: _313  and  _314
REMARK  141  A    between atoms: _317  and  _319
REMARK  142  A    between atoms: _319  and  _320
REMARK  143  A    between atoms: _319  and  _322
REMARK  144  A    between atoms: _322  and  _323
REMARK  145  A    between atoms: _328  and  _330
REMARK  146  A    between atoms: _330  and  _331
REMARK  147  A    between atoms: _330  and  _333
REMARK  148  A    between atoms: _333  and  _334
REMARK  149  A    between atoms: _334  and  _335
REMARK  150  A    between atoms: _335  and  _336
REMARK  151  A    between atoms: _336  and  _337
REMARK  152  A    between atoms: _341  and  _343
REMARK  153  A    between atoms: _343  and  _344
REMARK  154  A    between atoms: _343  and  _346
REMARK  155  A    between atoms: _346  and  _347
REMARK  156  A    between atoms: _350  and  _352
REMARK  157  A    between atoms: _352  and  _353
REMARK  158  A    between atoms: _352  and  _355
REMARK  159  A    between atoms: _355  and  _356
REMARK  160  A    between atoms: _359  and  _361
REMARK  161  A    between atoms: _361  and  _362
REMARK  162  A    between atoms: _361  and  _364
REMARK  163  A    between atoms: _364  and  _365
REMARK  164  A    between atoms: _368  and  _370
REMARK  165  A    between atoms: _370  and  _371
REMARK  166  A    between atoms: _374  and  _376
REMARK  167  A    between atoms: _376  and  _377
REMARK  168  A    between atoms: _376  and  _379
REMARK  169  A    between atoms: _379  and  _380
REMARK  170  A    between atoms: _383  and  _385
REMARK  171  A    between atoms: _385  and  _386
REMARK  172  A    between atoms: _385  and  _388
REMARK  173  A    between atoms: _388  and  _389
REMARK  174  A    between atoms: _391  and  _393
REMARK  175  A    between atoms: _393  and  _394
REMARK  176  A    between atoms: _393  and  _396
REMARK  177  A    between atoms: _396  and  _397
REMARK  178  A    between atoms: _400  and  _402
REMARK  179  A    between atoms: _402  and  _403
REMARK  180  A    between atoms: _402  and  _405
REMARK  181  A    between atoms: _405  and  _406
REMARK  182  A    between atoms: _406  and  _407
REMARK  183  A    between atoms: _407  and  _408
REMARK  184  A    between atoms: _408  and  _409
REMARK  185  A    between atoms: _413  and  _415
REMARK  186  A    between atoms: _415  and  _416
REMARK  187  A    between atoms: _415  and  _418
REMARK  188  A    between atoms: _418  and  _419
REMARK  189  A    between atoms: _422  and  _424
REMARK  190  A    between atoms: _424  and  _425
REMARK  191  A    between atoms: _424  and  _427
REMARK  192  A    between atoms: _427  and  _428
REMARK  193  A    between atoms: _428  and  _429
REMARK  194  A    between atoms: _431  and  _433
REMARK  195  A    between atoms: _433  and  _434
REMARK  196  A    between atoms: _433  and  _436
REMARK  197  A    between atoms: _436  and  _437
REMARK  198  A    between atoms: _437  and  _438
REMARK  199  A    between atoms: _441  and  _443
REMARK  200  A    between atoms: _443  and  _444
REMARK  201  A    between atoms: _443  and  _446
REMARK  202  A    between atoms: _446  and  _447
REMARK  203  A    between atoms: _450  and  _452
REMARK  204  A    between atoms: _452  and  _453
REMARK  205  A    between atoms: _452  and  _455
REMARK  206  A    between atoms: _455  and  _456
REMARK  207  A    between atoms: _458  and  _460
REMARK  208  A    between atoms: _460  and  _461
REMARK  209  A    between atoms: _460  and  _463
REMARK  210  A    between atoms: _463  and  _464
REMARK  211  A    between atoms: _467  and  _469
REMARK  212  A    between atoms: _469  and  _470
REMARK  213  A    between atoms: _469  and  _472
REMARK  214  A    between atoms: _472  and  _473
REMARK  215  A    between atoms: _476  and  _478
REMARK  216  A    between atoms: _478  and  _479
REMARK  217  A    between atoms: _478  and  _481
REMARK  218  A    between atoms: _481  and  _482
REMARK  219  A    between atoms: _482  and  _483
REMARK  220  A    between atoms: _486  and  _488
REMARK  221  A    between atoms: _488  and  _489
REMARK  222  A    between atoms: _491  and  _493
REMARK  223  A    between atoms: _493  and  _494
REMARK  224  A    between atoms: _493  and  _496
REMARK  225  A    between atoms: _496  and  _497
REMARK  226  A    between atoms: _500  and  _502
REMARK  227  A    between atoms: _502  and  _503
REMARK  228  A    between atoms: _502  and  _505
REMARK  229  A    between atoms: _505  and  _506
REMARK  230  A    between atoms: _509  and  _511
REMARK  231  A    between atoms: _511  and  _512
REMARK  232  A    between atoms: _511  and  _514
REMARK  233  A    between atoms: _514  and  _515
REMARK  234  A    between atoms: _518  and  _520
REMARK  235  A    between atoms: _520  and  _521
REMARK  236  A    between atoms: _520  and  _523
REMARK  237  A    between atoms: _523  and  _524
REMARK  238  A    between atoms: _527  and  _529
REMARK  239  A    between atoms: _529  and  _530
REMARK  240  A    between atoms: _529  and  _532
REMARK  241  A    between atoms: _532  and  _533
REMARK  242  A    between atoms: _533  and  _534
REMARK  243  A    between atoms: _534  and  _535
REMARK  244  A    between atoms: _535  and  _536
REMARK  245  A    between atoms: _540  and  _542
REMARK  246  A    between atoms: _542  and  _543
REMARK  247  A    between atoms: _542  and  _545
REMARK  248  A    between atoms: _545  and  _546
REMARK  249  A    between atoms: _551  and  _553
REMARK  250  A    between atoms: _553  and  _554
REMARK  251  A    between atoms: _553  and  _556
REMARK  252  A    between atoms: _556  and  _557
REMARK  253  A    between atoms: _560  and  _562
REMARK  254  A    between atoms: _562  and  _563
REMARK  255  A    between atoms: _566  and  _568
REMARK  256  A    between atoms: _568  and  _569
REMARK  257  A    between atoms: _568  and  _571
REMARK  258  A    between atoms: _571  and  _572
REMARK  259  A    between atoms: _575  and  _577
REMARK  260  A    between atoms: _577  and  _578
REMARK  261  A    between atoms: _581  and  _583
REMARK  262  A    between atoms: _583  and  _584
REMARK  263  A    between atoms: _583  and  _586
REMARK  264  A    between atoms: _589  and  _591
REMARK  265  A    between atoms: _591  and  _592
REMARK  266  A    between atoms: _594  and  _596
REMARK  267  A    between atoms: _596  and  _597
REMARK  268  A    between atoms: _600  and  _602
REMARK  269  A    between atoms: _602  and  _603
REMARK  270  A    between atoms: _602  and  _605
REMARK  271  A    between atoms: _605  and  _606
REMARK                            x       y       z     vdW  Elec       q    Type
REMARK                         _______ _______ _______ _____ _____    ______ ____
ROOT
ATOM      1  O   HOH     1     -13.600  15.849 -22.848  0.00  0.00    +0.000 OA
ENDROOT
TORSDOF 0
REMARK  Name = ../refined-set-2016/2hf8/2hf8_pocket.pdb
REMARK  271 active torsions:
REMARK  status: ('A' for Active; 'I' for Inactive)
REMARK    1  A    between atoms: _1  and  _3
REMARK    2  A    between atoms: _3  and  _4
REMARK    3  A    between atoms: _3  and  _6
REMARK    4  A    between atoms: _6  and  _7
REMARK    5  A    between atoms: _13  and  _15
REMARK    6  A    between atoms: _15  and  _16
REMARK    7  A    between atoms: _15  and  _18
REMARK    8  A    between atoms: _18  and  _19
REMARK    9  A    between atoms: _19  and  _20
REMARK   10  A    between atoms: _22  and  _24
REMARK   11  A    between atoms: _24  and  _25
REMARK   12  A    between atoms: _27  and  _29
REMARK   13  A    between atoms: _29  and  _30
REMARK   14  A    between atoms: _33  and  _35
REMARK   15  A    between atoms: _35  and  _36
REMARK   16  A    between atoms: _35  and  _38
REMARK   17  A    between atoms: _38  and  _39
REMARK   18  A    between atoms: _42  and  _44
REMARK   19  A    between atoms: _44  and  _45
REMARK   20  A    between atoms: _47  and  _49
REMARK   21  A    between atoms: _49  and  _50
REMARK   22  A    between atoms: _49  and  _52
REMARK   23  A    between atoms: _52  and  _53
REMARK   24  A    between atoms: _55  and  _57
REMARK   25  A    between atoms: _57  and  _58
REMARK   26  A    between atoms: _60  and  _62
REMARK   27  A    between atoms: _62  and  _63
REMARK   28  A    between atoms: _62  and  _65
REMARK   29  A    between atoms: _65  and  _66
REMARK   30  A    between atoms: _66  and  _67
REMARK   31  A    between atoms: _67  and  _68
REMARK   32  A    between atoms: _68  and  _69
REMARK   33  A    between atoms: _73  and  _75
REMARK   34  A    between atoms: _75  and  _76
REMARK   35  A    between atoms: _75  and  _78
REMARK   36  A    between atoms: _78  and  _79
REMARK   37  A    between atoms: _82  and  _84
REMARK   38  A    between atoms: _84  and  _85
REMARK   39  A    between atoms: _84  and  _87
REMARK   40  A    between atoms: _87  and  _88
REMARK   41  A    between atoms: _91  and  _93
REMARK   42  A    between atoms: _93  and  _94
REMARK   43  A    between atoms: _93  and  _96
REMARK   44  A    between atoms: _96  and  _97
REMARK   45  A    between atoms: _100  and  _102
REMARK   46  A    between atoms: _102  and  _103
REMARK   47  A    between atoms: _102  and  _105
REMARK   48  A    between atoms: _105  and  _106
REMARK   49  A    between atoms: _109  and  _111
REMARK   50  A    between atoms: _111  and  _112
REMARK   51  A    between atoms: _111  and  _114
REMARK   52  A    between atoms: _114  and  _115
REMARK   53  A    between atoms: _115  and  _116
REMARK   54  A    between atoms: _119  and  _121
REMARK   55  A    between atoms: _121  and  _122
REMARK   56  A    between atoms: _121  and  _124
REMARK   57  A    between atoms: _124  and  _125
REMARK   58  A    between atoms: _125  and  _126
REMARK   59  A    between atoms: _126  and  _127
REMARK   60  A    between atoms: _127  and  _128
REMARK   61  A    between atoms: _132  and  _134
REMARK   62  A    between atoms: _134  and  _135
REMARK   63  A    between atoms: _137  and  _139
REMARK   64  A    between atoms: _139  and  _140
REMARK   65  A    between atoms: _139  and  _142
REMARK   66  A    between atoms: _142  and  _143
REMARK   67  A    between atoms: _146  and  _148
REMARK   68  A    between atoms: _148  and  _149
REMARK   69  A    between atoms: _148  and  _151
REMARK   70  A    between atoms: _154  and  _156
REMARK   71  A    between atoms: _156  and  _157
REMARK   72  A    between atoms: _156  and  _159
REMARK   73  A    between atoms: _159  and  _160
REMARK   74  A    between atoms: _163  and  _165
REMARK   75  A    between atoms: _165  and  _166
REMARK   76  A    between atoms: _165  and  _168
REMARK   77  A    between atoms: _168  and  _169
REMARK   78  A    between atoms: _175  and  _177
REMARK   79  A    between atoms: _177  and  _178
REMARK   80  A    between atoms: _177  and  _180
REMARK   81  A    between atoms: _180  and  _181
REMARK   82  A    between atoms: _181  and  _183
REMARK   83  A    between atoms: _183  and  MG_609
REMARK   84  A    between atoms: _184  and  _186
REMARK   85  A    between atoms: _186  and  _187
REMARK   86  A    between atoms: _186  and  _189
REMARK   87  A    between atoms: _189  and  _190
REMARK   88  A    between atoms: _190  and  _191
REMARK   89  A    between atoms: _191  and  _192
REMARK   90  A    between atoms: _201  and  _203
REMARK   91  A    between atoms: _203  and  _204
REMARK   92  A    between atoms: _203  and  _206
REMARK   93  A    between atoms: _206  and  _207
REMARK   94  A    between atoms: _207  and  _208
REMARK   95  A    between atoms: _210  and  _212
REMARK   96  A    between atoms: _212  and  _213
REMARK   97  A    between atoms: _212  and  _215
REMARK   98  A    between atoms: _215  and  _216
REMARK   99  A    between atoms: _216  and  _217
REMARK  100  A    between atoms: _220  and  _222
REMARK  101  A    between atoms: _222  and  _223
REMARK  102  A    between atoms: _222  and  _225
REMARK  103  A    between atoms: _225  and  _226
REMARK  104  A    between atoms: _231  and  _233
REMARK  105  A    between atoms: _233  and  _234
REMARK  106  A    between atoms: _233  and  _236
REMARK  107  A    between atoms: _239  and  _241
REMARK  108  A    between atoms: _241  and  _242
REMARK  109  A    between atoms: _244  and  _246
REMARK  110  A    between atoms: _246  and  _247
REMARK  111  A    between atoms: _246  and  _249
REMARK  112  A    between atoms: _249  and  _250
REMARK  113  A    between atoms: _255  and  _257
REMARK  114  A    between atoms: _257  and  _258
REMARK  115  A    between atoms: _257  and  _260
REMARK  116  A    between atoms: _263  and  _265
REMARK  117  A    between atoms: _265  and  _266
REMARK  118  A    between atoms: _265  and  _268
REMARK  119  A    between atoms: _268  and  _269
REMARK  120  A    between atoms: _272  and  _274
REMARK  121  A    between atoms: _274  and  _275
REMARK  122  A    between atoms: _274  and  _277
REMARK  123  A    between atoms: _277  and  _278
REMARK  124  A    between atoms: _280  and  _282
REMARK  125  A    between atoms: _282  and  _283
REMARK  126  A    between atoms: _282  and  _285
REMARK  127  A    between atoms: _285  and  _286
REMARK  128  A    between atoms: _289  and  _291
REMARK  129  A    between atoms: _291  and  _292
REMARK  130  A    between atoms: _291  and  _294
REMARK  131  A    between atoms: _294  and  _295
REMARK  132  A    between atoms: _298  and  _300
REMARK  133  A    between atoms: _300  and  _301
REMARK  134  A    between atoms: _300  and  _303
REMARK  135  A    between atoms: _303  and  _304
REMARK  136  A    between atoms: _304  and  _305
REMARK  137  A    between atoms: _308  and  _310
REMARK  138  A    between atoms: _310  and  _311
REMARK  139  A    between atoms: _310  and  _313
REMARK  140  A    between atoms: _313  and  _314
REMARK  141  A    between atoms: _317  and  _319
REMARK  142  A    between atoms: _319  and  _320
REMARK  143  A    between atoms: _319  and  _322
REMARK  144  A    between atoms: _322  and  _323
REMARK  145  A    between atoms: _328  and  _330
REMARK  146  A    between atoms: _330  and  _331
REMARK  147  A    between atoms: _330  and  _333
REMARK  148  A    between atoms: _333  and  _334
REMARK  149  A    between atoms: _334  and  _335
REMARK  150  A    between atoms: _335  and  _336
REMARK  151  A    between atoms: _336  and  _337
REMARK  152  A    between atoms: _341  and  _343
REMARK  153  A    between atoms: _343  and  _344
REMARK  154  A    between atoms: _343  and  _346
REMARK  155  A    between atoms: _346  and  _347
REMARK  156  A    between atoms: _350  and  _352
REMARK  157  A    between atoms: _352  and  _353
REMARK  158  A    between atoms: _352  and  _355
REMARK  159  A    between atoms: _355  and  _356
REMARK  160  A    between atoms: _359  and  _361
REMARK  161  A    between atoms: _361  and  _362
REMARK  162  A    between atoms: _361  and  _364
REMARK  163  A    between atoms: _364  and  _365
REMARK  164  A    between atoms: _368  and  _370
REMARK  165  A    between atoms: _370  and  _371
REMARK  166  A    between atoms: _374  and  _376
REMARK  167  A    between atoms: _376  and  _377
REMARK  168  A    between atoms: _376  and  _379
REMARK  169  A    between atoms: _379  and  _380
REMARK  170  A    between atoms: _383  and  _385
REMARK  171  A    between atoms: _385  and  _386
REMARK  172  A    between atoms: _385  and  _388
REMARK  173  A    between atoms: _388  and  _389
REMARK  174  A    between atoms: _391  and  _393
REMARK  175  A    between atoms: _393  and  _394
REMARK  176  A    between atoms: _393  and  _396
REMARK  177  A    between atoms: _396  and  _397
REMARK  178  A    between atoms: _400  and  _402
REMARK  179  A    between atoms: _402  and  _403
REMARK  180  A    between atoms: _402  and  _405
REMARK  181  A    between atoms: _405  and  _406
REMARK  182  A    between atoms: _406  and  _407
REMARK  183  A    between atoms: _407  and  _408
REMARK  184  A    between atoms: _408  and  _409
REMARK  185  A    between atoms: _413  and  _415
REMARK  186  A    between atoms: _415  and  _416
REMARK  187  A    between atoms: _415  and  _418
REMARK  188  A    between atoms: _418  and  _419
REMARK  189  A    between atoms: _422  and  _424
REMARK  190  A    between atoms: _424  and  _425
REMARK  191  A    between atoms: _424  and  _427
REMARK  192  A    between atoms: _427  and  _428
REMARK  193  A    between atoms: _428  and  _429
REMARK  194  A    between atoms: _431  and  _433
REMARK  195  A    between atoms: _433  and  _434
REMARK  196  A    between atoms: _433  and  _436
REMARK  197  A    between atoms: _436  and  _437
REMARK  198  A    between atoms: _437  and  _438
REMARK  199  A    between atoms: _441  and  _443
REMARK  200  A    between atoms: _443  and  _444
REMARK  201  A    between atoms: _443  and  _446
REMARK  202  A    between atoms: _446  and  _447
REMARK  203  A    between atoms: _450  and  _452
REMARK  204  A    between atoms: _452  and  _453
REMARK  205  A    between atoms: _452  and  _455
REMARK  206  A    between atoms: _455  and  _456
REMARK  207  A    between atoms: _458  and  _460
REMARK  208  A    between atoms: _460  and  _461
REMARK  209  A    between atoms: _460  and  _463
REMARK  210  A    between atoms: _463  and  _464
REMARK  211  A    between atoms: _467  and  _469
REMARK  212  A    between atoms: _469  and  _470
REMARK  213  A    between atoms: _469  and  _472
REMARK  214  A    between atoms: _472  and  _473
REMARK  215  A    between atoms: _476  and  _478
REMARK  216  A    between atoms: _478  and  _479
REMARK  217  A    between atoms: _478  and  _481
REMARK  218  A    between atoms: _481  and  _482
REMARK  219  A    between atoms: _482  and  _483
REMARK  220  A    between atoms: _486  and  _488
REMARK  221  A    between atoms: _488  and  _489
REMARK  222  A    between atoms: _491  and  _493
REMARK  223  A    between atoms: _493  and  _494
REMARK  224  A    between atoms: _493  and  _496
REMARK  225  A    between atoms: _496  and  _497
REMARK  226  A    between atoms: _500  and  _502
REMARK  227  A    between atoms: _502  and  _503
REMARK  228  A    between atoms: _502  and  _505
REMARK  229  A    between atoms: _505  and  _506
REMARK  230  A    between atoms: _509  and  _511
REMARK  231  A    between atoms: _511  and  _512
REMARK  232  A    between atoms: _511  and  _514
REMARK  233  A    between atoms: _514  and  _515
REMARK  234  A    between atoms: _518  and  _520
REMARK  235  A    between atoms: _520  and  _521
REMARK  236  A    between atoms: _520  and  _523
REMARK  237  A    between atoms: _523  and  _524
REMARK  238  A    between atoms: _527  and  _529
REMARK  239  A    between atoms: _529  and  _530
REMARK  240  A    between atoms: _529  and  _532
REMARK  241  A    between atoms: _532  and  _533
REMARK  242  A    between atoms: _533  and  _534
REMARK  243  A    between atoms: _534  and  _535
REMARK  244  A    between atoms: _535  and  _536
REMARK  245  A    between atoms: _540  and  _542
REMARK  246  A    between atoms: _542  and  _543
REMARK  247  A    between atoms: _542  and  _545
REMARK  248  A    between atoms: _545  and  _546
REMARK  249  A    between atoms: _551  and  _553
REMARK  250  A    between atoms: _553  and  _554
REMARK  251  A    between atoms: _553  and  _556
REMARK  252  A    between atoms: _556  and  _557
REMARK  253  A    between atoms: _560  and  _562
REMARK  254  A    between atoms: _562  and  _563
REMARK  255  A    between atoms: _566  and  _568
REMARK  256  A    between atoms: _568  and  _569
REMARK  257  A    between atoms: _568  and  _571
REMARK  258  A    between atoms: _571  and  _572
REMARK  259  A    between atoms: _575  and  _577
REMARK  260  A    between atoms: _577  and  _578
REMARK  261  A    between atoms: _581  and  _583
REMARK  262  A    between atoms: _583  and  _584
REMARK  263  A    between atoms: _583  and  _586
REMARK  264  A    between atoms: _589  and  _591
REMARK  265  A    between atoms: _591  and  _592
REMARK  266  A    between atoms: _594  and  _596
REMARK  267  A    between atoms: _596  and  _597
REMARK  268  A    between atoms: _600  and  _602
REMARK  269  A    between atoms: _602  and  _603
REMARK  270  A    between atoms: _602  and  _605
REMARK  271  A    between atoms: _605  and  _606
REMARK                            x       y       z     vdW  Elec       q    Type
REMARK                         _______ _______ _______ _____ _____    ______ ____
ROOT
ATOM      1  O   HOH     1       0.075  23.125 -28.097  0.00  0.00    +0.000 OA
ENDROOT
TORSDOF 0
REMARK  Name = ../refined-set-2016/2hf8/2hf8_pocket.pdb
REMARK  271 active torsions:
REMARK  status: ('A' for Active; 'I' for Inactive)
REMARK    1  A    between atoms: _1  and  _3
REMARK    2  A    between atoms: _3  and  _4
REMARK    3  A    between atoms: _3  and  _6
REMARK    4  A    between atoms: _6  and  _7
REMARK    5  A    between atoms: _13  and  _15
REMARK    6  A    between atoms: _15  and  _16
REMARK    7  A    between atoms: _15  and  _18
REMARK    8  A    between atoms: _18  and  _19
REMARK    9  A    between atoms: _19  and  _20
REMARK   10  A    between atoms: _22  and  _24
REMARK   11  A    between atoms: _24  and  _25
REMARK   12  A    between atoms: _27  and  _29
REMARK   13  A    between atoms: _29  and  _30
REMARK   14  A    between atoms: _33  and  _35
REMARK   15  A    between atoms: _35  and  _36
REMARK   16  A    between atoms: _35  and  _38
REMARK   17  A    between atoms: _38  and  _39
REMARK   18  A    between atoms: _42  and  _44
REMARK   19  A    between atoms: _44  and  _45
REMARK   20  A    between atoms: _47  and  _49
REMARK   21  A    between atoms: _49  and  _50
REMARK   22  A    between atoms: _49  and  _52
REMARK   23  A    between atoms: _52  and  _53
REMARK   24  A    between atoms: _55  and  _57
REMARK   25  A    between atoms: _57  and  _58
REMARK   26  A    between atoms: _60  and  _62
REMARK   27  A    between atoms: _62  and  _63
REMARK   28  A    between atoms: _62  and  _65
REMARK   29  A    between atoms: _65  and  _66
REMARK   30  A    between atoms: _66  and  _67
REMARK   31  A    between atoms: _67  and  _68
REMARK   32  A    between atoms: _68  and  _69
REMARK   33  A    between atoms: _73  and  _75
REMARK   34  A    between atoms: _75  and  _76
REMARK   35  A    between atoms: _75  and  _78
REMARK   36  A    between atoms: _78  and  _79
REMARK   37  A    between atoms: _82  and  _84
REMARK   38  A    between atoms: _84  and  _85
REMARK   39  A    between atoms: _84  and  _87
REMARK   40  A    between atoms: _87  and  _88
REMARK   41  A    between atoms: _91  and  _93
REMARK   42  A    between atoms: _93  and  _94
REMARK   43  A    between atoms: _93  and  _96
REMARK   44  A    between atoms: _96  and  _97
REMARK   45  A    between atoms: _100  and  _102
REMARK   46  A    between atoms: _102  and  _103
REMARK   47  A    between atoms: _102  and  _105
REMARK   48  A    between atoms: _105  and  _106
REMARK   49  A    between atoms: _109  and  _111
REMARK   50  A    between atoms: _111  and  _112
REMARK   51  A    between atoms: _111  and  _114
REMARK   52  A    between atoms: _114  and  _115
REMARK   53  A    between atoms: _115  and  _116
REMARK   54  A    between atoms: _119  and  _121
REMARK   55  A    between atoms: _121  and  _122
REMARK   56  A    between atoms: _121  and  _124
REMARK   57  A    between atoms: _124  and  _125
REMARK   58  A    between atoms: _125  and  _126
REMARK   59  A    between atoms: _126  and  _127
REMARK   60  A    between atoms: _127  and  _128
REMARK   61  A    between atoms: _132  and  _134
REMARK   62  A    between atoms: _134  and  _135
REMARK   63  A    between atoms: _137  and  _139
REMARK   64  A    between atoms: _139  and  _140
REMARK   65  A    between atoms: _139  and  _142
REMARK   66  A    between atoms: _142  and  _143
REMARK   67  A    between atoms: _146  and  _148
REMARK   68  A    between atoms: _148  and  _149
REMARK   69  A    between atoms: _148  and  _151
REMARK   70  A    between atoms: _154  and  _156
REMARK   71  A    between atoms: _156  and  _157
REMARK   72  A    between atoms: _156  and  _159
REMARK   73  A    between atoms: _159  and  _160
REMARK   74  A    between atoms: _163  and  _165
REMARK   75  A    between atoms: _165  and  _166
REMARK   76  A    between atoms: _165  and  _168
REMARK   77  A    between atoms: _168  and  _169
REMARK   78  A    between atoms: _175  and  _177
REMARK   79  A    between atoms: _177  and  _178
REMARK   80  A    between atoms: _177  and  _180
REMARK   81  A    between atoms: _180  and  _181
REMARK   82  A    between atoms: _181  and  _183
REMARK   83  A    between atoms: _183  and  MG_609
REMARK   84  A    between atoms: _184  and  _186
REMARK   85  A    between atoms: _186  and  _187
REMARK   86  A    between atoms: _186  and  _189
REMARK   87  A    between atoms: _189  and  _190
REMARK   88  A    between atoms: _190  and  _191
REMARK   89  A    between atoms: _191  and  _192
REMARK   90  A    between atoms: _201  and  _203
REMARK   91  A    between atoms: _203  and  _204
REMARK   92  A    between atoms: _203  and  _206
REMARK   93  A    between atoms: _206  and  _207
REMARK   94  A    between atoms: _207  and  _208
REMARK   95  A    between atoms: _210  and  _212
REMARK   96  A    between atoms: _212  and  _213
REMARK   97  A    between atoms: _212  and  _215
REMARK   98  A    between atoms: _215  and  _216
REMARK   99  A    between atoms: _216  and  _217
REMARK  100  A    between atoms: _220  and  _222
REMARK  101  A    between atoms: _222  and  _223
REMARK  102  A    between atoms: _222  and  _225
REMARK  103  A    between atoms: _225  and  _226
REMARK  104  A    between atoms: _231  and  _233
REMARK  105  A    between atoms: _233  and  _234
REMARK  106  A    between atoms: _233  and  _236
REMARK  107  A    between atoms: _239  and  _241
REMARK  108  A    between atoms: _241  and  _242
REMARK  109  A    between atoms: _244  and  _246
REMARK  110  A    between atoms: _246  and  _247
REMARK  111  A    between atoms: _246  and  _249
REMARK  112  A    between atoms: _249  and  _250
REMARK  113  A    between atoms: _255  and  _257
REMARK  114  A    between atoms: _257  and  _258
REMARK  115  A    between atoms: _257  and  _260
REMARK  116  A    between atoms: _263  and  _265
REMARK  117  A    between atoms: _265  and  _266
REMARK  118  A    between atoms: _265  and  _268
REMARK  119  A    between atoms: _268  and  _269
REMARK  120  A    between atoms: _272  and  _274
REMARK  121  A    between atoms: _274  and  _275
REMARK  122  A    between atoms: _274  and  _277
REMARK  123  A    between atoms: _277  and  _278
REMARK  124  A    between atoms: _280  and  _282
REMARK  125  A    between atoms: _282  and  _283
REMARK  126  A    between atoms: _282  and  _285
REMARK  127  A    between atoms: _285  and  _286
REMARK  128  A    between atoms: _289  and  _291
REMARK  129  A    between atoms: _291  and  _292
REMARK  130  A    between atoms: _291  and  _294
REMARK  131  A    between atoms: _294  and  _295
REMARK  132  A    between atoms: _298  and  _300
REMARK  133  A    between atoms: _300  and  _301
REMARK  134  A    between atoms: _300  and  _303
REMARK  135  A    between atoms: _303  and  _304
REMARK  136  A    between atoms: _304  and  _305
REMARK  137  A    between atoms: _308  and  _310
REMARK  138  A    between atoms: _310  and  _311
REMARK  139  A    between atoms: _310  and  _313
REMARK  140  A    between atoms: _313  and  _314
REMARK  141  A    between atoms: _317  and  _319
REMARK  142  A    between atoms: _319  and  _320
REMARK  143  A    between atoms: _319  and  _322
REMARK  144  A    between atoms: _322  and  _323
REMARK  145  A    between atoms: _328  and  _330
REMARK  146  A    between atoms: _330  and  _331
REMARK  147  A    between atoms: _330  and  _333
REMARK  148  A    between atoms: _333  and  _334
REMARK  149  A    between atoms: _334  and  _335
REMARK  150  A    between atoms: _335  and  _336
REMARK  151  A    between atoms: _336  and  _337
REMARK  152  A    between atoms: _341  and  _343
REMARK  153  A    between atoms: _343  and  _344
REMARK  154  A    between atoms: _343  and  _346
REMARK  155  A    between atoms: _346  and  _347
REMARK  156  A    between atoms: _350  and  _352
REMARK  157  A    between atoms: _352  and  _353
REMARK  158  A    between atoms: _352  and  _355
REMARK  159  A    between atoms: _355  and  _356
REMARK  160  A    between atoms: _359  and  _361
REMARK  161  A    between atoms: _361  and  _362
REMARK  162  A    between atoms: _361  and  _364
REMARK  163  A    between atoms: _364  and  _365
REMARK  164  A    between atoms: _368  and  _370
REMARK  165  A    between atoms: _370  and  _371
REMARK  166  A    between atoms: _374  and  _376
REMARK  167  A    between atoms: _376  and  _377
REMARK  168  A    between atoms: _376  and  _379
REMARK  169  A    between atoms: _379  and  _380
REMARK  170  A    between atoms: _383  and  _385
REMARK  171  A    between atoms: _385  and  _386
REMARK  172  A    between atoms: _385  and  _388
REMARK  173  A    between atoms: _388  and  _389
REMARK  174  A    between atoms: _391  and  _393
REMARK  175  A    between atoms: _393  and  _394
REMARK  176  A    between atoms: _393  and  _396
REMARK  177  A    between atoms: _396  and  _397
REMARK  178  A    between atoms: _400  and  _402
REMARK  179  A    between atoms: _402  and  _403
REMARK  180  A    between atoms: _402  and  _405
REMARK  181  A    between atoms: _405  and  _406
REMARK  182  A    between atoms: _406  and  _407
REMARK  183  A    between atoms: _407  and  _408
REMARK  184  A    between atoms: _408  and  _409
REMARK  185  A    between atoms: _413  and  _415
REMARK  186  A    between atoms: _415  and  _416
REMARK  187  A    between atoms: _415  and  _418
REMARK  188  A    between atoms: _418  and  _419
REMARK  189  A    between atoms: _422  and  _424
REMARK  190  A    between atoms: _424  and  _425
REMARK  191  A    between atoms: _424  and  _427
REMARK  192  A    between atoms: _427  and  _428
REMARK  193  A    between atoms: _428  and  _429
REMARK  194  A    between atoms: _431  and  _433
REMARK  195  A    between atoms: _433  and  _434
REMARK  196  A    between atoms: _433  and  _436
REMARK  197  A    between atoms: _436  and  _437
REMARK  198  A    between atoms: _437  and  _438
REMARK  199  A    between atoms: _441  and  _443
REMARK  200  A    between atoms: _443  and  _444
REMARK  201  A    between atoms: _443  and  _446
REMARK  202  A    between atoms: _446  and  _447
REMARK  203  A    between atoms: _450  and  _452
REMARK  204  A    between atoms: _452  and  _453
REMARK  205  A    between atoms: _452  and  _455
REMARK  206  A    between atoms: _455  and  _456
REMARK  207  A    between atoms: _458  and  _460
REMARK  208  A    between atoms: _460  and  _461
REMARK  209  A    between atoms: _460  and  _463
REMARK  210  A    between atoms: _463  and  _464
REMARK  211  A    between atoms: _467  and  _469
REMARK  212  A    between atoms: _469  and  _470
REMARK  213  A    between atoms: _469  and  _472
REMARK  214  A    between atoms: _472  and  _473
REMARK  215  A    between atoms: _476  and  _478
REMARK  216  A    between atoms: _478  and  _479
REMARK  217  A    between atoms: _478  and  _481
REMARK  218  A    between atoms: _481  and  _482
REMARK  219  A    between atoms: _482  and  _483
REMARK  220  A    between atoms: _486  and  _488
REMARK  221  A    between atoms: _488  and  _489
REMARK  222  A    between atoms: _491  and  _493
REMARK  223  A    between atoms: _493  and  _494
REMARK  224  A    between atoms: _493  and  _496
REMARK  225  A    between atoms: _496  and  _497
REMARK  226  A    between atoms: _500  and  _502
REMARK  227  A    between atoms: _502  and  _503
REMARK  228  A    between atoms: _502  and  _505
REMARK  229  A    between atoms: _505  and  _506
REMARK  230  A    between atoms: _509  and  _511
REMARK  231  A    between atoms: _511  and  _512
REMARK  232  A    between atoms: _511  and  _514
REMARK  233  A    between atoms: _514  and  _515
REMARK  234  A    between atoms: _518  and  _520
REMARK  235  A    between atoms: _520  and  _521
REMARK  236  A    between atoms: _520  and  _523
REMARK  237  A    between atoms: _523  and  _524
REMARK  238  A    between atoms: _527  and  _529
REMARK  239  A    between atoms: _529  and  _530
REMARK  240  A    between atoms: _529  and  _532
REMARK  241  A    between atoms: _532  and  _533
REMARK  242  A    between atoms: _533  and  _534
REMARK  243  A    between atoms: _534  and  _535
REMARK  244  A    between atoms: _535  and  _536
REMARK  245  A    between atoms: _540  and  _542
REMARK  246  A    between atoms: _542  and  _543
REMARK  247  A    between atoms: _542  and  _545
REMARK  248  A    between atoms: _545  and  _546
REMARK  249  A    between atoms: _551  and  _553
REMARK  250  A    between atoms: _553  and  _554
REMARK  251  A    between atoms: _553  and  _556
REMARK  252  A    between atoms: _556  and  _557
REMARK  253  A    between atoms: _560  and  _562
REMARK  254  A    between atoms: _562  and  _563
REMARK  255  A    between atoms: _566  and  _568
REMARK  256  A    between atoms: _568  and  _569
REMARK  257  A    between atoms: _568  and  _571
REMARK  258  A    between atoms: _571  and  _572
REMARK  259  A    between atoms: _575  and  _577
REMARK  260  A    between atoms: _577  and  _578
REMARK  261  A    between atoms: _581  and  _583
REMARK  262  A    between atoms: _583  and  _584
REMARK  263  A    between atoms: _583  and  _586
REMARK  264  A    between atoms: _589  and  _591
REMARK  265  A    between atoms: _591  and  _592
REMARK  266  A    between atoms: _594  and  _596
REMARK  267  A    between atoms: _596  and  _597
REMARK  268  A    between atoms: _600  and  _602
REMARK  269  A    between atoms: _602  and  _603
REMARK  270  A    between atoms: _602  and  _605
REMARK  271  A    between atoms: _605  and  _606
REMARK                            x       y       z     vdW  Elec       q    Type
REMARK                         _______ _______ _______ _____ _____    ______ ____
ROOT
ATOM      1  O   HOH     1      -9.326  21.812 -33.023  0.00  0.00    +0.000 OA
ENDROOT
TORSDOF 0
REMARK  Name = ../refined-set-2016/2hf8/2hf8_pocket.pdb
REMARK  271 active torsions:
REMARK  status: ('A' for Active; 'I' for Inactive)
REMARK    1  A    between atoms: _1  and  _3
REMARK    2  A    between atoms: _3  and  _4
REMARK    3  A    between atoms: _3  and  _6
REMARK    4  A    between atoms: _6  and  _7
REMARK    5  A    between atoms: _13  and  _15
REMARK    6  A    between atoms: _15  and  _16
REMARK    7  A    between atoms: _15  and  _18
REMARK    8  A    between atoms: _18  and  _19
REMARK    9  A    between atoms: _19  and  _20
REMARK   10  A    between atoms: _22  and  _24
REMARK   11  A    between atoms: _24  and  _25
REMARK   12  A    between atoms: _27  and  _29
REMARK   13  A    between atoms: _29  and  _30
REMARK   14  A    between atoms: _33  and  _35
REMARK   15  A    between atoms: _35  and  _36
REMARK   16  A    between atoms: _35  and  _38
REMARK   17  A    between atoms: _38  and  _39
REMARK   18  A    between atoms: _42  and  _44
REMARK   19  A    between atoms: _44  and  _45
REMARK   20  A    between atoms: _47  and  _49
REMARK   21  A    between atoms: _49  and  _50
REMARK   22  A    between atoms: _49  and  _52
REMARK   23  A    between atoms: _52  and  _53
REMARK   24  A    between atoms: _55  and  _57
REMARK   25  A    between atoms: _57  and  _58
REMARK   26  A    between atoms: _60  and  _62
REMARK   27  A    between atoms: _62  and  _63
REMARK   28  A    between atoms: _62  and  _65
REMARK   29  A    between atoms: _65  and  _66
REMARK   30  A    between atoms: _66  and  _67
REMARK   31  A    between atoms: _67  and  _68
REMARK   32  A    between atoms: _68  and  _69
REMARK   33  A    between atoms: _73  and  _75
REMARK   34  A    between atoms: _75  and  _76
REMARK   35  A    between atoms: _75  and  _78
REMARK   36  A    between atoms: _78  and  _79
REMARK   37  A    between atoms: _82  and  _84
REMARK   38  A    between atoms: _84  and  _85
REMARK   39  A    between atoms: _84  and  _87
REMARK   40  A    between atoms: _87  and  _88
REMARK   41  A    between atoms: _91  and  _93
REMARK   42  A    between atoms: _93  and  _94
REMARK   43  A    between atoms: _93  and  _96
REMARK   44  A    between atoms: _96  and  _97
REMARK   45  A    between atoms: _100  and  _102
REMARK   46  A    between atoms: _102  and  _103
REMARK   47  A    between atoms: _102  and  _105
REMARK   48  A    between atoms: _105  and  _106
REMARK   49  A    between atoms: _109  and  _111
REMARK   50  A    between atoms: _111  and  _112
REMARK   51  A    between atoms: _111  and  _114
REMARK   52  A    between atoms: _114  and  _115
REMARK   53  A    between atoms: _115  and  _116
REMARK   54  A    between atoms: _119  and  _121
REMARK   55  A    between atoms: _121  and  _122
REMARK   56  A    between atoms: _121  and  _124
REMARK   57  A    between atoms: _124  and  _125
REMARK   58  A    between atoms: _125  and  _126
REMARK   59  A    between atoms: _126  and  _127
REMARK   60  A    between atoms: _127  and  _128
REMARK   61  A    between atoms: _132  and  _134
REMARK   62  A    between atoms: _134  and  _135
REMARK   63  A    between atoms: _137  and  _139
REMARK   64  A    between atoms: _139  and  _140
REMARK   65  A    between atoms: _139  and  _142
REMARK   66  A    between atoms: _142  and  _143
REMARK   67  A    between atoms: _146  and  _148
REMARK   68  A    between atoms: _148  and  _149
REMARK   69  A    between atoms: _148  and  _151
REMARK   70  A    between atoms: _154  and  _156
REMARK   71  A    between atoms: _156  and  _157
REMARK   72  A    between atoms: _156  and  _159
REMARK   73  A    between atoms: _159  and  _160
REMARK   74  A    between atoms: _163  and  _165
REMARK   75  A    between atoms: _165  and  _166
REMARK   76  A    between atoms: _165  and  _168
REMARK   77  A    between atoms: _168  and  _169
REMARK   78  A    between atoms: _175  and  _177
REMARK   79  A    between atoms: _177  and  _178
REMARK   80  A    between atoms: _177  and  _180
REMARK   81  A    between atoms: _180  and  _181
REMARK   82  A    between atoms: _181  and  _183
REMARK   83  A    between atoms: _183  and  MG_609
REMARK   84  A    between atoms: _184  and  _186
REMARK   85  A    between atoms: _186  and  _187
REMARK   86  A    between atoms: _186  and  _189
REMARK   87  A    between atoms: _189  and  _190
REMARK   88  A    between atoms: _190  and  _191
REMARK   89  A    between atoms: _191  and  _192
REMARK   90  A    between atoms: _201  and  _203
REMARK   91  A    between atoms: _203  and  _204
REMARK   92  A    between atoms: _203  and  _206
REMARK   93  A    between atoms: _206  and  _207
REMARK   94  A    between atoms: _207  and  _208
REMARK   95  A    between atoms: _210  and  _212
REMARK   96  A    between atoms: _212  and  _213
REMARK   97  A    between atoms: _212  and  _215
REMARK   98  A    between atoms: _215  and  _216
REMARK   99  A    between atoms: _216  and  _217
REMARK  100  A    between atoms: _220  and  _222
REMARK  101  A    between atoms: _222  and  _223
REMARK  102  A    between atoms: _222  and  _225
REMARK  103  A    between atoms: _225  and  _226
REMARK  104  A    between atoms: _231  and  _233
REMARK  105  A    between atoms: _233  and  _234
REMARK  106  A    between atoms: _233  and  _236
REMARK  107  A    between atoms: _239  and  _241
REMARK  108  A    between atoms: _241  and  _242
REMARK  109  A    between atoms: _244  and  _246
REMARK  110  A    between atoms: _246  and  _247
REMARK  111  A    between atoms: _246  and  _249
REMARK  112  A    between atoms: _249  and  _250
REMARK  113  A    between atoms: _255  and  _257
REMARK  114  A    between atoms: _257  and  _258
REMARK  115  A    between atoms: _257  and  _260
REMARK  116  A    between atoms: _263  and  _265
REMARK  117  A    between atoms: _265  and  _266
REMARK  118  A    between atoms: _265  and  _268
REMARK  119  A    between atoms: _268  and  _269
REMARK  120  A    between atoms: _272  and  _274
REMARK  121  A    between atoms: _274  and  _275
REMARK  122  A    between atoms: _274  and  _277
REMARK  123  A    between atoms: _277  and  _278
REMARK  124  A    between atoms: _280  and  _282
REMARK  125  A    between atoms: _282  and  _283
REMARK  126  A    between atoms: _282  and  _285
REMARK  127  A    between atoms: _285  and  _286
REMARK  128  A    between atoms: _289  and  _291
REMARK  129  A    between atoms: _291  and  _292
REMARK  130  A    between atoms: _291  and  _294
REMARK  131  A    between atoms: _294  and  _295
REMARK  132  A    between atoms: _298  and  _300
REMARK  133  A    between atoms: _300  and  _301
REMARK  134  A    between atoms: _300  and  _303
REMARK  135  A    between atoms: _303  and  _304
REMARK  136  A    between atoms: _304  and  _305
REMARK  137  A    between atoms: _308  and  _310
REMARK  138  A    between atoms: _310  and  _311
REMARK  139  A    between atoms: _310  and  _313
REMARK  140  A    between atoms: _313  and  _314
REMARK  141  A    between atoms: _317  and  _319
REMARK  142  A    between atoms: _319  and  _320
REMARK  143  A    between atoms: _319  and  _322
REMARK  144  A    between atoms: _322  and  _323
REMARK  145  A    between atoms: _328  and  _330
REMARK  146  A    between atoms: _330  and  _331
REMARK  147  A    between atoms: _330  and  _333
REMARK  148  A    between atoms: _333  and  _334
REMARK  149  A    between atoms: _334  and  _335
REMARK  150  A    between atoms: _335  and  _336
REMARK  151  A    between atoms: _336  and  _337
REMARK  152  A    between atoms: _341  and  _343
REMARK  153  A    between atoms: _343  and  _344
REMARK  154  A    between atoms: _343  and  _346
REMARK  155  A    between atoms: _346  and  _347
REMARK  156  A    between atoms: _350  and  _352
REMARK  157  A    between atoms: _352  and  _353
REMARK  158  A    between atoms: _352  and  _355
REMARK  159  A    between atoms: _355  and  _356
REMARK  160  A    between atoms: _359  and  _361
REMARK  161  A    between atoms: _361  and  _362
REMARK  162  A    between atoms: _361  and  _364
REMARK  163  A    between atoms: _364  and  _365
REMARK  164  A    between atoms: _368  and  _370
REMARK  165  A    between atoms: _370  and  _371
REMARK  166  A    between atoms: _374  and  _376
REMARK  167  A    between atoms: _376  and  _377
REMARK  168  A    between atoms: _376  and  _379
REMARK  169  A    between atoms: _379  and  _380
REMARK  170  A    between atoms: _383  and  _385
REMARK  171  A    between atoms: _385  and  _386
REMARK  172  A    between atoms: _385  and  _388
REMARK  173  A    between atoms: _388  and  _389
REMARK  174  A    between atoms: _391  and  _393
REMARK  175  A    between atoms: _393  and  _394
REMARK  176  A    between atoms: _393  and  _396
REMARK  177  A    between atoms: _396  and  _397
REMARK  178  A    between atoms: _400  and  _402
REMARK  179  A    between atoms: _402  and  _403
REMARK  180  A    between atoms: _402  and  _405
REMARK  181  A    between atoms: _405  and  _406
REMARK  182  A    between atoms: _406  and  _407
REMARK  183  A    between atoms: _407  and  _408
REMARK  184  A    between atoms: _408  and  _409
REMARK  185  A    between atoms: _413  and  _415
REMARK  186  A    between atoms: _415  and  _416
REMARK  187  A    between atoms: _415  and  _418
REMARK  188  A    between atoms: _418  and  _419
REMARK  189  A    between atoms: _422  and  _424
REMARK  190  A    between atoms: _424  and  _425
REMARK  191  A    between atoms: _424  and  _427
REMARK  192  A    between atoms: _427  and  _428
REMARK  193  A    between atoms: _428  and  _429
REMARK  194  A    between atoms: _431  and  _433
REMARK  195  A    between atoms: _433  and  _434
REMARK  196  A    between atoms: _433  and  _436
REMARK  197  A    between atoms: _436  and  _437
REMARK  198  A    between atoms: _437  and  _438
REMARK  199  A    between atoms: _441  and  _443
REMARK  200  A    between atoms: _443  and  _444
REMARK  201  A    between atoms: _443  and  _446
REMARK  202  A    between atoms: _446  and  _447
REMARK  203  A    between atoms: _450  and  _452
REMARK  204  A    between atoms: _452  and  _453
REMARK  205  A    between atoms: _452  and  _455
REMARK  206  A    between atoms: _455  and  _456
REMARK  207  A    between atoms: _458  and  _460
REMARK  208  A    between atoms: _460  and  _461
REMARK  209  A    between atoms: _460  and  _463
REMARK  210  A    between atoms: _463  and  _464
REMARK  211  A    between atoms: _467  and  _469
REMARK  212  A    between atoms: _469  and  _470
REMARK  213  A    between atoms: _469  and  _472
REMARK  214  A    between atoms: _472  and  _473
REMARK  215  A    between atoms: _476  and  _478
REMARK  216  A    between atoms: _478  and  _479
REMARK  217  A    between atoms: _478  and  _481
REMARK  218  A    between atoms: _481  and  _482
REMARK  219  A    between atoms: _482  and  _483
REMARK  220  A    between atoms: _486  and  _488
REMARK  221  A    between atoms: _488  and  _489
REMARK  222  A    between atoms: _491  and  _493
REMARK  223  A    between atoms: _493  and  _494
REMARK  224  A    between atoms: _493  and  _496
REMARK  225  A    between atoms: _496  and  _497
REMARK  226  A    between atoms: _500  and  _502
REMARK  227  A    between atoms: _502  and  _503
REMARK  228  A    between atoms: _502  and  _505
REMARK  229  A    between atoms: _505  and  _506
REMARK  230  A    between atoms: _509  and  _511
REMARK  231  A    between atoms: _511  and  _512
REMARK  232  A    between atoms: _511  and  _514
REMARK  233  A    between atoms: _514  and  _515
REMARK  234  A    between atoms: _518  and  _520
REMARK  235  A    between atoms: _520  and  _521
REMARK  236  A    between atoms: _520  and  _523
REMARK  237  A    between atoms: _523  and  _524
REMARK  238  A    between atoms: _527  and  _529
REMARK  239  A    between atoms: _529  and  _530
REMARK  240  A    between atoms: _529  and  _532
REMARK  241  A    between atoms: _532  and  _533
REMARK  242  A    between atoms: _533  and  _534
REMARK  243  A    between atoms: _534  and  _535
REMARK  244  A    between atoms: _535  and  _536
REMARK  245  A    between atoms: _540  and  _542
REMARK  246  A    between atoms: _542  and  _543
REMARK  247  A    between atoms: _542  and  _545
REMARK  248  A    between atoms: _545  and  _546
REMARK  249  A    between atoms: _551  and  _553
REMARK  250  A    between atoms: _553  and  _554
REMARK  251  A    between atoms: _553  and  _556
REMARK  252  A    between atoms: _556  and  _557
REMARK  253  A    between atoms: _560  and  _562
REMARK  254  A    between atoms: _562  and  _563
REMARK  255  A    between atoms: _566  and  _568
REMARK  256  A    between atoms: _568  and  _569
REMARK  257  A    between atoms: _568  and  _571
REMARK  258  A    between atoms: _571  and  _572
REMARK  259  A    between atoms: _575  and  _577
REMARK  260  A    between atoms: _577  and  _578
REMARK  261  A    between atoms: _581  and  _583
REMARK  262  A    between atoms: _583  and  _584
REMARK  263  A    between atoms: _583  and  _586
REMARK  264  A    between atoms: _589  and  _591
REMARK  265  A    between atoms: _591  and  _592
REMARK  266  A    between atoms: _594  and  _596
REMARK  267  A    between atoms: _596  and  _597
REMARK  268  A    between atoms: _600  and  _602
REMARK  269  A    between atoms: _602  and  _603
REMARK  270  A    between atoms: _602  and  _605
REMARK  271  A    between atoms: _605  and  _606
REMARK                            x       y       z     vdW  Elec       q    Type
REMARK                         _______ _______ _______ _____ _____    ______ ____
ROOT
ATOM      1  O   HOH     1     -10.660  12.714 -22.115  0.00  0.00    +0.000 OA
ENDROOT
TORSDOF 0
REMARK  Name = ../refined-set-2016/2hf8/2hf8_pocket.pdb
REMARK  271 active torsions:
REMARK  status: ('A' for Active; 'I' for Inactive)
REMARK    1  A    between atoms: _1  and  _3
REMARK    2  A    between atoms: _3  and  _4
REMARK    3  A    between atoms: _3  and  _6
REMARK    4  A    between atoms: _6  and  _7
REMARK    5  A    between atoms: _13  and  _15
REMARK    6  A    between atoms: _15  and  _16
REMARK    7  A    between atoms: _15  and  _18
REMARK    8  A    between atoms: _18  and  _19
REMARK    9  A    between atoms: _19  and  _20
REMARK   10  A    between atoms: _22  and  _24
REMARK   11  A    between atoms: _24  and  _25
REMARK   12  A    between atoms: _27  and  _29
REMARK   13  A    between atoms: _29  and  _30
REMARK   14  A    between atoms: _33  and  _35
REMARK   15  A    between atoms: _35  and  _36
REMARK   16  A    between atoms: _35  and  _38
REMARK   17  A    between atoms: _38  and  _39
REMARK   18  A    between atoms: _42  and  _44
REMARK   19  A    between atoms: _44  and  _45
REMARK   20  A    between atoms: _47  and  _49
REMARK   21  A    between atoms: _49  and  _50
REMARK   22  A    between atoms: _49  and  _52
REMARK   23  A    between atoms: _52  and  _53
REMARK   24  A    between atoms: _55  and  _57
REMARK   25  A    between atoms: _57  and  _58
REMARK   26  A    between atoms: _60  and  _62
REMARK   27  A    between atoms: _62  and  _63
REMARK   28  A    between atoms: _62  and  _65
REMARK   29  A    between atoms: _65  and  _66
REMARK   30  A    between atoms: _66  and  _67
REMARK   31  A    between atoms: _67  and  _68
REMARK   32  A    between atoms: _68  and  _69
REMARK   33  A    between atoms: _73  and  _75
REMARK   34  A    between atoms: _75  and  _76
REMARK   35  A    between atoms: _75  and  _78
REMARK   36  A    between atoms: _78  and  _79
REMARK   37  A    between atoms: _82  and  _84
REMARK   38  A    between atoms: _84  and  _85
REMARK   39  A    between atoms: _84  and  _87
REMARK   40  A    between atoms: _87  and  _88
REMARK   41  A    between atoms: _91  and  _93
REMARK   42  A    between atoms: _93  and  _94
REMARK   43  A    between atoms: _93  and  _96
REMARK   44  A    between atoms: _96  and  _97
REMARK   45  A    between atoms: _100  and  _102
REMARK   46  A    between atoms: _102  and  _103
REMARK   47  A    between atoms: _102  and  _105
REMARK   48  A    between atoms: _105  and  _106
REMARK   49  A    between atoms: _109  and  _111
REMARK   50  A    between atoms: _111  and  _112
REMARK   51  A    between atoms: _111  and  _114
REMARK   52  A    between atoms: _114  and  _115
REMARK   53  A    between atoms: _115  and  _116
REMARK   54  A    between atoms: _119  and  _121
REMARK   55  A    between atoms: _121  and  _122
REMARK   56  A    between atoms: _121  and  _124
REMARK   57  A    between atoms: _124  and  _125
REMARK   58  A    between atoms: _125  and  _126
REMARK   59  A    between atoms: _126  and  _127
REMARK   60  A    between atoms: _127  and  _128
REMARK   61  A    between atoms: _132  and  _134
REMARK   62  A    between atoms: _134  and  _135
REMARK   63  A    between atoms: _137  and  _139
REMARK   64  A    between atoms: _139  and  _140
REMARK   65  A    between atoms: _139  and  _142
REMARK   66  A    between atoms: _142  and  _143
REMARK   67  A    between atoms: _146  and  _148
REMARK   68  A    between atoms: _148  and  _149
REMARK   69  A    between atoms: _148  and  _151
REMARK   70  A    between atoms: _154  and  _156
REMARK   71  A    between atoms: _156  and  _157
REMARK   72  A    between atoms: _156  and  _159
REMARK   73  A    between atoms: _159  and  _160
REMARK   74  A    between atoms: _163  and  _165
REMARK   75  A    between atoms: _165  and  _166
REMARK   76  A    between atoms: _165  and  _168
REMARK   77  A    between atoms: _168  and  _169
REMARK   78  A    between atoms: _175  and  _177
REMARK   79  A    between atoms: _177  and  _178
REMARK   80  A    between atoms: _177  and  _180
REMARK   81  A    between atoms: _180  and  _181
REMARK   82  A    between atoms: _181  and  _183
REMARK   83  A    between atoms: _183  and  MG_609
REMARK   84  A    between atoms: _184  and  _186
REMARK   85  A    between atoms: _186  and  _187
REMARK   86  A    between atoms: _186  and  _189
REMARK   87  A    between atoms: _189  and  _190
REMARK   88  A    between atoms: _190  and  _191
REMARK   89  A    between atoms: _191  and  _192
REMARK   90  A    between atoms: _201  and  _203
REMARK   91  A    between atoms: _203  and  _204
REMARK   92  A    between atoms: _203  and  _206
REMARK   93  A    between atoms: _206  and  _207
REMARK   94  A    between atoms: _207  and  _208
REMARK   95  A    between atoms: _210  and  _212
REMARK   96  A    between atoms: _212  and  _213
REMARK   97  A    between atoms: _212  and  _215
REMARK   98  A    between atoms: _215  and  _216
REMARK   99  A    between atoms: _216  and  _217
REMARK  100  A    between atoms: _220  and  _222
REMARK  101  A    between atoms: _222  and  _223
REMARK  102  A    between atoms: _222  and  _225
REMARK  103  A    between atoms: _225  and  _226
REMARK  104  A    between atoms: _231  and  _233
REMARK  105  A    between atoms: _233  and  _234
REMARK  106  A    between atoms: _233  and  _236
REMARK  107  A    between atoms: _239  and  _241
REMARK  108  A    between atoms: _241  and  _242
REMARK  109  A    between atoms: _244  and  _246
REMARK  110  A    between atoms: _246  and  _247
REMARK  111  A    between atoms: _246  and  _249
REMARK  112  A    between atoms: _249  and  _250
REMARK  113  A    between atoms: _255  and  _257
REMARK  114  A    between atoms: _257  and  _258
REMARK  115  A    between atoms: _257  and  _260
REMARK  116  A    between atoms: _263  and  _265
REMARK  117  A    between atoms: _265  and  _266
REMARK  118  A    between atoms: _265  and  _268
REMARK  119  A    between atoms: _268  and  _269
REMARK  120  A    between atoms: _272  and  _274
REMARK  121  A    between atoms: _274  and  _275
REMARK  122  A    between atoms: _274  and  _277
REMARK  123  A    between atoms: _277  and  _278
REMARK  124  A    between atoms: _280  and  _282
REMARK  125  A    between atoms: _282  and  _283
REMARK  126  A    between atoms: _282  and  _285
REMARK  127  A    between atoms: _285  and  _286
REMARK  128  A    between atoms: _289  and  _291
REMARK  129  A    between atoms: _291  and  _292
REMARK  130  A    between atoms: _291  and  _294
REMARK  131  A    between atoms: _294  and  _295
REMARK  132  A    between atoms: _298  and  _300
REMARK  133  A    between atoms: _300  and  _301
REMARK  134  A    between atoms: _300  and  _303
REMARK  135  A    between atoms: _303  and  _304
REMARK  136  A    between atoms: _304  and  _305
REMARK  137  A    between atoms: _308  and  _310
REMARK  138  A    between atoms: _310  and  _311
REMARK  139  A    between atoms: _310  and  _313
REMARK  140  A    between atoms: _313  and  _314
REMARK  141  A    between atoms: _317  and  _319
REMARK  142  A    between atoms: _319  and  _320
REMARK  143  A    between atoms: _319  and  _322
REMARK  144  A    between atoms: _322  and  _323
REMARK  145  A    between atoms: _328  and  _330
REMARK  146  A    between atoms: _330  and  _331
REMARK  147  A    between atoms: _330  and  _333
REMARK  148  A    between atoms: _333  and  _334
REMARK  149  A    between atoms: _334  and  _335
REMARK  150  A    between atoms: _335  and  _336
REMARK  151  A    between atoms: _336  and  _337
REMARK  152  A    between atoms: _341  and  _343
REMARK  153  A    between atoms: _343  and  _344
REMARK  154  A    between atoms: _343  and  _346
REMARK  155  A    between atoms: _346  and  _347
REMARK  156  A    between atoms: _350  and  _352
REMARK  157  A    between atoms: _352  and  _353
REMARK  158  A    between atoms: _352  and  _355
REMARK  159  A    between atoms: _355  and  _356
REMARK  160  A    between atoms: _359  and  _361
REMARK  161  A    between atoms: _361  and  _362
REMARK  162  A    between atoms: _361  and  _364
REMARK  163  A    between atoms: _364  and  _365
REMARK  164  A    between atoms: _368  and  _370
REMARK  165  A    between atoms: _370  and  _371
REMARK  166  A    between atoms: _374  and  _376
REMARK  167  A    between atoms: _376  and  _377
REMARK  168  A    between atoms: _376  and  _379
REMARK  169  A    between atoms: _379  and  _380
REMARK  170  A    between atoms: _383  and  _385
REMARK  171  A    between atoms: _385  and  _386
REMARK  172  A    between atoms: _385  and  _388
REMARK  173  A    between atoms: _388  and  _389
REMARK  174  A    between atoms: _391  and  _393
REMARK  175  A    between atoms: _393  and  _394
REMARK  176  A    between atoms: _393  and  _396
REMARK  177  A    between atoms: _396  and  _397
REMARK  178  A    between atoms: _400  and  _402
REMARK  179  A    between atoms: _402  and  _403
REMARK  180  A    between atoms: _402  and  _405
REMARK  181  A    between atoms: _405  and  _406
REMARK  182  A    between atoms: _406  and  _407
REMARK  183  A    between atoms: _407  and  _408
REMARK  184  A    between atoms: _408  and  _409
REMARK  185  A    between atoms: _413  and  _415
REMARK  186  A    between atoms: _415  and  _416
REMARK  187  A    between atoms: _415  and  _418
REMARK  188  A    between atoms: _418  and  _419
REMARK  189  A    between atoms: _422  and  _424
REMARK  190  A    between atoms: _424  and  _425
REMARK  191  A    between atoms: _424  and  _427
REMARK  192  A    between atoms: _427  and  _428
REMARK  193  A    between atoms: _428  and  _429
REMARK  194  A    between atoms: _431  and  _433
REMARK  195  A    between atoms: _433  and  _434
REMARK  196  A    between atoms: _433  and  _436
REMARK  197  A    between atoms: _436  and  _437
REMARK  198  A    between atoms: _437  and  _438
REMARK  199  A    between atoms: _441  and  _443
REMARK  200  A    between atoms: _443  and  _444
REMARK  201  A    between atoms: _443  and  _446
REMARK  202  A    between atoms: _446  and  _447
REMARK  203  A    between atoms: _450  and  _452
REMARK  204  A    between atoms: _452  and  _453
REMARK  205  A    between atoms: _452  and  _455
REMARK  206  A    between atoms: _455  and  _456
REMARK  207  A    between atoms: _458  and  _460
REMARK  208  A    between atoms: _460  and  _461
REMARK  209  A    between atoms: _460  and  _463
REMARK  210  A    between atoms: _463  and  _464
REMARK  211  A    between atoms: _467  and  _469
REMARK  212  A    between atoms: _469  and  _470
REMARK  213  A    between atoms: _469  and  _472
REMARK  214  A    between atoms: _472  and  _473
REMARK  215  A    between atoms: _476  and  _478
REMARK  216  A    between atoms: _478  and  _479
REMARK  217  A    between atoms: _478  and  _481
REMARK  218  A    between atoms: _481  and  _482
REMARK  219  A    between atoms: _482  and  _483
REMARK  220  A    between atoms: _486  and  _488
REMARK  221  A    between atoms: _488  and  _489
REMARK  222  A    between atoms: _491  and  _493
REMARK  223  A    between atoms: _493  and  _494
REMARK  224  A    between atoms: _493  and  _496
REMARK  225  A    between atoms: _496  and  _497
REMARK  226  A    between atoms: _500  and  _502
REMARK  227  A    between atoms: _502  and  _503
REMARK  228  A    between atoms: _502  and  _505
REMARK  229  A    between atoms: _505  and  _506
REMARK  230  A    between atoms: _509  and  _511
REMARK  231  A    between atoms: _511  and  _512
REMARK  232  A    between atoms: _511  and  _514
REMARK  233  A    between atoms: _514  and  _515
REMARK  234  A    between atoms: _518  and  _520
REMARK  235  A    between atoms: _520  and  _521
REMARK  236  A    between atoms: _520  and  _523
REMARK  237  A    between atoms: _523  and  _524
REMARK  238  A    between atoms: _527  and  _529
REMARK  239  A    between atoms: _529  and  _530
REMARK  240  A    between atoms: _529  and  _532
REMARK  241  A    between atoms: _532  and  _533
REMARK  242  A    between atoms: _533  and  _534
REMARK  243  A    between atoms: _534  and  _535
REMARK  244  A    between atoms: _535  and  _536
REMARK  245  A    between atoms: _540  and  _542
REMARK  246  A    between atoms: _542  and  _543
REMARK  247  A    between atoms: _542  and  _545
REMARK  248  A    between atoms: _545  and  _546
REMARK  249  A    between atoms: _551  and  _553
REMARK  250  A    between atoms: _553  and  _554
REMARK  251  A    between atoms: _553  and  _556
REMARK  252  A    between atoms: _556  and  _557
REMARK  253  A    between atoms: _560  and  _562
REMARK  254  A    between atoms: _562  and  _563
REMARK  255  A    between atoms: _566  and  _568
REMARK  256  A    between atoms: _568  and  _569
REMARK  257  A    between atoms: _568  and  _571
REMARK  258  A    between atoms: _571  and  _572
REMARK  259  A    between atoms: _575  and  _577
REMARK  260  A    between atoms: _577  and  _578
REMARK  261  A    between atoms: _581  and  _583
REMARK  262  A    between atoms: _583  and  _584
REMARK  263  A    between atoms: _583  and  _586
REMARK  264  A    between atoms: _589  and  _591
REMARK  265  A    between atoms: _591  and  _592
REMARK  266  A    between atoms: _594  and  _596
REMARK  267  A    between atoms: _596  and  _597
REMARK  268  A    between atoms: _600  and  _602
REMARK  269  A    between atoms: _602  and  _603
REMARK  270  A    between atoms: _602  and  _605
REMARK  271  A    between atoms: _605  and  _606
REMARK                            x       y       z     vdW  Elec       q    Type
REMARK                         _______ _______ _______ _____ _____    ______ ____
ROOT
ATOM      1  O   HOH     1       1.004  20.559 -41.013  0.00  0.00    +0.000 OA
ENDROOT
TORSDOF 0
REMARK  Name = ../refined-set-2016/2hf8/2hf8_pocket.pdb
REMARK  271 active torsions:
REMARK  status: ('A' for Active; 'I' for Inactive)
REMARK    1  A    between atoms: _1  and  _3
REMARK    2  A    between atoms: _3  and  _4
REMARK    3  A    between atoms: _3  and  _6
REMARK    4  A    between atoms: _6  and  _7
REMARK    5  A    between atoms: _13  and  _15
REMARK    6  A    between atoms: _15  and  _16
REMARK    7  A    between atoms: _15  and  _18
REMARK    8  A    between atoms: _18  and  _19
REMARK    9  A    between atoms: _19  and  _20
REMARK   10  A    between atoms: _22  and  _24
REMARK   11  A    between atoms: _24  and  _25
REMARK   12  A    between atoms: _27  and  _29
REMARK   13  A    between atoms: _29  and  _30
REMARK   14  A    between atoms: _33  and  _35
REMARK   15  A    between atoms: _35  and  _36
REMARK   16  A    between atoms: _35  and  _38
REMARK   17  A    between atoms: _38  and  _39
REMARK   18  A    between atoms: _42  and  _44
REMARK   19  A    between atoms: _44  and  _45
REMARK   20  A    between atoms: _47  and  _49
REMARK   21  A    between atoms: _49  and  _50
REMARK   22  A    between atoms: _49  and  _52
REMARK   23  A    between atoms: _52  and  _53
REMARK   24  A    between atoms: _55  and  _57
REMARK   25  A    between atoms: _57  and  _58
REMARK   26  A    between atoms: _60  and  _62
REMARK   27  A    between atoms: _62  and  _63
REMARK   28  A    between atoms: _62  and  _65
REMARK   29  A    between atoms: _65  and  _66
REMARK   30  A    between atoms: _66  and  _67
REMARK   31  A    between atoms: _67  and  _68
REMARK   32  A    between atoms: _68  and  _69
REMARK   33  A    between atoms: _73  and  _75
REMARK   34  A    between atoms: _75  and  _76
REMARK   35  A    between atoms: _75  and  _78
REMARK   36  A    between atoms: _78  and  _79
REMARK   37  A    between atoms: _82  and  _84
REMARK   38  A    between atoms: _84  and  _85
REMARK   39  A    between atoms: _84  and  _87
REMARK   40  A    between atoms: _87  and  _88
REMARK   41  A    between atoms: _91  and  _93
REMARK   42  A    between atoms: _93  and  _94
REMARK   43  A    between atoms: _93  and  _96
REMARK   44  A    between atoms: _96  and  _97
REMARK   45  A    between atoms: _100  and  _102
REMARK   46  A    between atoms: _102  and  _103
REMARK   47  A    between atoms: _102  and  _105
REMARK   48  A    between atoms: _105  and  _106
REMARK   49  A    between atoms: _109  and  _111
REMARK   50  A    between atoms: _111  and  _112
REMARK   51  A    between atoms: _111  and  _114
REMARK   52  A    between atoms: _114  and  _115
REMARK   53  A    between atoms: _115  and  _116
REMARK   54  A    between atoms: _119  and  _121
REMARK   55  A    between atoms: _121  and  _122
REMARK   56  A    between atoms: _121  and  _124
REMARK   57  A    between atoms: _124  and  _125
REMARK   58  A    between atoms: _125  and  _126
REMARK   59  A    between atoms: _126  and  _127
REMARK   60  A    between atoms: _127  and  _128
REMARK   61  A    between atoms: _132  and  _134
REMARK   62  A    between atoms: _134  and  _135
REMARK   63  A    between atoms: _137  and  _139
REMARK   64  A    between atoms: _139  and  _140
REMARK   65  A    between atoms: _139  and  _142
REMARK   66  A    between atoms: _142  and  _143
REMARK   67  A    between atoms: _146  and  _148
REMARK   68  A    between atoms: _148  and  _149
REMARK   69  A    between atoms: _148  and  _151
REMARK   70  A    between atoms: _154  and  _156
REMARK   71  A    between atoms: _156  and  _157
REMARK   72  A    between atoms: _156  and  _159
REMARK   73  A    between atoms: _159  and  _160
REMARK   74  A    between atoms: _163  and  _165
REMARK   75  A    between atoms: _165  and  _166
REMARK   76  A    between atoms: _165  and  _168
REMARK   77  A    between atoms: _168  and  _169
REMARK   78  A    between atoms: _175  and  _177
REMARK   79  A    between atoms: _177  and  _178
REMARK   80  A    between atoms: _177  and  _180
REMARK   81  A    between atoms: _180  and  _181
REMARK   82  A    between atoms: _181  and  _183
REMARK   83  A    between atoms: _183  and  MG_609
REMARK   84  A    between atoms: _184  and  _186
REMARK   85  A    between atoms: _186  and  _187
REMARK   86  A    between atoms: _186  and  _189
REMARK   87  A    between atoms: _189  and  _190
REMARK   88  A    between atoms: _190  and  _191
REMARK   89  A    between atoms: _191  and  _192
REMARK   90  A    between atoms: _201  and  _203
REMARK   91  A    between atoms: _203  and  _204
REMARK   92  A    between atoms: _203  and  _206
REMARK   93  A    between atoms: _206  and  _207
REMARK   94  A    between atoms: _207  and  _208
REMARK   95  A    between atoms: _210  and  _212
REMARK   96  A    between atoms: _212  and  _213
REMARK   97  A    between atoms: _212  and  _215
REMARK   98  A    between atoms: _215  and  _216
REMARK   99  A    between atoms: _216  and  _217
REMARK  100  A    between atoms: _220  and  _222
REMARK  101  A    between atoms: _222  and  _223
REMARK  102  A    between atoms: _222  and  _225
REMARK  103  A    between atoms: _225  and  _226
REMARK  104  A    between atoms: _231  and  _233
REMARK  105  A    between atoms: _233  and  _234
REMARK  106  A    between atoms: _233  and  _236
REMARK  107  A    between atoms: _239  and  _241
REMARK  108  A    between atoms: _241  and  _242
REMARK  109  A    between atoms: _244  and  _246
REMARK  110  A    between atoms: _246  and  _247
REMARK  111  A    between atoms: _246  and  _249
REMARK  112  A    between atoms: _249  and  _250
REMARK  113  A    between atoms: _255  and  _257
REMARK  114  A    between atoms: _257  and  _258
REMARK  115  A    between atoms: _257  and  _260
REMARK  116  A    between atoms: _263  and  _265
REMARK  117  A    between atoms: _265  and  _266
REMARK  118  A    between atoms: _265  and  _268
REMARK  119  A    between atoms: _268  and  _269
REMARK  120  A    between atoms: _272  and  _274
REMARK  121  A    between atoms: _274  and  _275
REMARK  122  A    between atoms: _274  and  _277
REMARK  123  A    between atoms: _277  and  _278
REMARK  124  A    between atoms: _280  and  _282
REMARK  125  A    between atoms: _282  and  _283
REMARK  126  A    between atoms: _282  and  _285
REMARK  127  A    between atoms: _285  and  _286
REMARK  128  A    between atoms: _289  and  _291
REMARK  129  A    between atoms: _291  and  _292
REMARK  130  A    between atoms: _291  and  _294
REMARK  131  A    between atoms: _294  and  _295
REMARK  132  A    between atoms: _298  and  _300
REMARK  133  A    between atoms: _300  and  _301
REMARK  134  A    between atoms: _300  and  _303
REMARK  135  A    between atoms: _303  and  _304
REMARK  136  A    between atoms: _304  and  _305
REMARK  137  A    between atoms: _308  and  _310
REMARK  138  A    between atoms: _310  and  _311
REMARK  139  A    between atoms: _310  and  _313
REMARK  140  A    between atoms: _313  and  _314
REMARK  141  A    between atoms: _317  and  _319
REMARK  142  A    between atoms: _319  and  _320
REMARK  143  A    between atoms: _319  and  _322
REMARK  144  A    between atoms: _322  and  _323
REMARK  145  A    between atoms: _328  and  _330
REMARK  146  A    between atoms: _330  and  _331
REMARK  147  A    between atoms: _330  and  _333
REMARK  148  A    between atoms: _333  and  _334
REMARK  149  A    between atoms: _334  and  _335
REMARK  150  A    between atoms: _335  and  _336
REMARK  151  A    between atoms: _336  and  _337
REMARK  152  A    between atoms: _341  and  _343
REMARK  153  A    between atoms: _343  and  _344
REMARK  154  A    between atoms: _343  and  _346
REMARK  155  A    between atoms: _346  and  _347
REMARK  156  A    between atoms: _350  and  _352
REMARK  157  A    between atoms: _352  and  _353
REMARK  158  A    between atoms: _352  and  _355
REMARK  159  A    between atoms: _355  and  _356
REMARK  160  A    between atoms: _359  and  _361
REMARK  161  A    between atoms: _361  and  _362
REMARK  162  A    between atoms: _361  and  _364
REMARK  163  A    between atoms: _364  and  _365
REMARK  164  A    between atoms: _368  and  _370
REMARK  165  A    between atoms: _370  and  _371
REMARK  166  A    between atoms: _374  and  _376
REMARK  167  A    between atoms: _376  and  _377
REMARK  168  A    between atoms: _376  and  _379
REMARK  169  A    between atoms: _379  and  _380
REMARK  170  A    between atoms: _383  and  _385
REMARK  171  A    between atoms: _385  and  _386
REMARK  172  A    between atoms: _385  and  _388
REMARK  173  A    between atoms: _388  and  _389
REMARK  174  A    between atoms: _391  and  _393
REMARK  175  A    between atoms: _393  and  _394
REMARK  176  A    between atoms: _393  and  _396
REMARK  177  A    between atoms: _396  and  _397
REMARK  178  A    between atoms: _400  and  _402
REMARK  179  A    between atoms: _402  and  _403
REMARK  180  A    between atoms: _402  and  _405
REMARK  181  A    between atoms: _405  and  _406
REMARK  182  A    between atoms: _406  and  _407
REMARK  183  A    between atoms: _407  and  _408
REMARK  184  A    between atoms: _408  and  _409
REMARK  185  A    between atoms: _413  and  _415
REMARK  186  A    between atoms: _415  and  _416
REMARK  187  A    between atoms: _415  and  _418
REMARK  188  A    between atoms: _418  and  _419
REMARK  189  A    between atoms: _422  and  _424
REMARK  190  A    between atoms: _424  and  _425
REMARK  191  A    between atoms: _424  and  _427
REMARK  192  A    between atoms: _427  and  _428
REMARK  193  A    between atoms: _428  and  _429
REMARK  194  A    between atoms: _431  and  _433
REMARK  195  A    between atoms: _433  and  _434
REMARK  196  A    between atoms: _433  and  _436
REMARK  197  A    between atoms: _436  and  _437
REMARK  198  A    between atoms: _437  and  _438
REMARK  199  A    between atoms: _441  and  _443
REMARK  200  A    between atoms: _443  and  _444
REMARK  201  A    between atoms: _443  and  _446
REMARK  202  A    between atoms: _446  and  _447
REMARK  203  A    between atoms: _450  and  _452
REMARK  204  A    between atoms: _452  and  _453
REMARK  205  A    between atoms: _452  and  _455
REMARK  206  A    between atoms: _455  and  _456
REMARK  207  A    between atoms: _458  and  _460
REMARK  208  A    between atoms: _460  and  _461
REMARK  209  A    between atoms: _460  and  _463
REMARK  210  A    between atoms: _463  and  _464
REMARK  211  A    between atoms: _467  and  _469
REMARK  212  A    between atoms: _469  and  _470
REMARK  213  A    between atoms: _469  and  _472
REMARK  214  A    between atoms: _472  and  _473
REMARK  215  A    between atoms: _476  and  _478
REMARK  216  A    between atoms: _478  and  _479
REMARK  217  A    between atoms: _478  and  _481
REMARK  218  A    between atoms: _481  and  _482
REMARK  219  A    between atoms: _482  and  _483
REMARK  220  A    between atoms: _486  and  _488
REMARK  221  A    between atoms: _488  and  _489
REMARK  222  A    between atoms: _491  and  _493
REMARK  223  A    between atoms: _493  and  _494
REMARK  224  A    between atoms: _493  and  _496
REMARK  225  A    between atoms: _496  and  _497
REMARK  226  A    between atoms: _500  and  _502
REMARK  227  A    between atoms: _502  and  _503
REMARK  228  A    between atoms: _502  and  _505
REMARK  229  A    between atoms: _505  and  _506
REMARK  230  A    between atoms: _509  and  _511
REMARK  231  A    between atoms: _511  and  _512
REMARK  232  A    between atoms: _511  and  _514
REMARK  233  A    between atoms: _514  and  _515
REMARK  234  A    between atoms: _518  and  _520
REMARK  235  A    between atoms: _520  and  _521
REMARK  236  A    between atoms: _520  and  _523
REMARK  237  A    between atoms: _523  and  _524
REMARK  238  A    between atoms: _527  and  _529
REMARK  239  A    between atoms: _529  and  _530
REMARK  240  A    between atoms: _529  and  _532
REMARK  241  A    between atoms: _532  and  _533
REMARK  242  A    between atoms: _533  and  _534
REMARK  243  A    between atoms: _534  and  _535
REMARK  244  A    between atoms: _535  and  _536
REMARK  245  A    between atoms: _540  and  _542
REMARK  246  A    between atoms: _542  and  _543
REMARK  247  A    between atoms: _542  and  _545
REMARK  248  A    between atoms: _545  and  _546
REMARK  249  A    between atoms: _551  and  _553
REMARK  250  A    between atoms: _553  and  _554
REMARK  251  A    between atoms: _553  and  _556
REMARK  252  A    between atoms: _556  and  _557
REMARK  253  A    between atoms: _560  and  _562
REMARK  254  A    between atoms: _562  and  _563
REMARK  255  A    between atoms: _566  and  _568
REMARK  256  A    between atoms: _568  and  _569
REMARK  257  A    between atoms: _568  and  _571
REMARK  258  A    between atoms: _571  and  _572
REMARK  259  A    between atoms: _575  and  _577
REMARK  260  A    between atoms: _577  and  _578
REMARK  261  A    between atoms: _581  and  _583
REMARK  262  A    between atoms: _583  and  _584
REMARK  263  A    between atoms: _583  and  _586
REMARK  264  A    between atoms: _589  and  _591
REMARK  265  A    between atoms: _591  and  _592
REMARK  266  A    between atoms: _594  and  _596
REMARK  267  A    between atoms: _596  and  _597
REMARK  268  A    between atoms: _600  and  _602
REMARK  269  A    between atoms: _602  and  _603
REMARK  270  A    between atoms: _602  and  _605
REMARK  271  A    between atoms: _605  and  _606
REMARK                            x       y       z     vdW  Elec       q    Type
REMARK                         _______ _______ _______ _____ _____    ______ ____
ROOT
ATOM      1  O   HOH     1     -13.199  13.223 -21.795  0.00  0.00    +0.000 OA
ENDROOT
TORSDOF 0
REMARK  Name = ../refined-set-2016/2hf8/2hf8_pocket.pdb
REMARK  271 active torsions:
REMARK  status: ('A' for Active; 'I' for Inactive)
REMARK    1  A    between atoms: _1  and  _3
REMARK    2  A    between atoms: _3  and  _4
REMARK    3  A    between atoms: _3  and  _6
REMARK    4  A    between atoms: _6  and  _7
REMARK    5  A    between atoms: _13  and  _15
REMARK    6  A    between atoms: _15  and  _16
REMARK    7  A    between atoms: _15  and  _18
REMARK    8  A    between atoms: _18  and  _19
REMARK    9  A    between atoms: _19  and  _20
REMARK   10  A    between atoms: _22  and  _24
REMARK   11  A    between atoms: _24  and  _25
REMARK   12  A    between atoms: _27  and  _29
REMARK   13  A    between atoms: _29  and  _30
REMARK   14  A    between atoms: _33  and  _35
REMARK   15  A    between atoms: _35  and  _36
REMARK   16  A    between atoms: _35  and  _38
REMARK   17  A    between atoms: _38  and  _39
REMARK   18  A    between atoms: _42  and  _44
REMARK   19  A    between atoms: _44  and  _45
REMARK   20  A    between atoms: _47  and  _49
REMARK   21  A    between atoms: _49  and  _50
REMARK   22  A    between atoms: _49  and  _52
REMARK   23  A    between atoms: _52  and  _53
REMARK   24  A    between atoms: _55  and  _57
REMARK   25  A    between atoms: _57  and  _58
REMARK   26  A    between atoms: _60  and  _62
REMARK   27  A    between atoms: _62  and  _63
REMARK   28  A    between atoms: _62  and  _65
REMARK   29  A    between atoms: _65  and  _66
REMARK   30  A    between atoms: _66  and  _67
REMARK   31  A    between atoms: _67  and  _68
REMARK   32  A    between atoms: _68  and  _69
REMARK   33  A    between atoms: _73  and  _75
REMARK   34  A    between atoms: _75  and  _76
REMARK   35  A    between atoms: _75  and  _78
REMARK   36  A    between atoms: _78  and  _79
REMARK   37  A    between atoms: _82  and  _84
REMARK   38  A    between atoms: _84  and  _85
REMARK   39  A    between atoms: _84  and  _87
REMARK   40  A    between atoms: _87  and  _88
REMARK   41  A    between atoms: _91  and  _93
REMARK   42  A    between atoms: _93  and  _94
REMARK   43  A    between atoms: _93  and  _96
REMARK   44  A    between atoms: _96  and  _97
REMARK   45  A    between atoms: _100  and  _102
REMARK   46  A    between atoms: _102  and  _103
REMARK   47  A    between atoms: _102  and  _105
REMARK   48  A    between atoms: _105  and  _106
REMARK   49  A    between atoms: _109  and  _111
REMARK   50  A    between atoms: _111  and  _112
REMARK   51  A    between atoms: _111  and  _114
REMARK   52  A    between atoms: _114  and  _115
REMARK   53  A    between atoms: _115  and  _116
REMARK   54  A    between atoms: _119  and  _121
REMARK   55  A    between atoms: _121  and  _122
REMARK   56  A    between atoms: _121  and  _124
REMARK   57  A    between atoms: _124  and  _125
REMARK   58  A    between atoms: _125  and  _126
REMARK   59  A    between atoms: _126  and  _127
REMARK   60  A    between atoms: _127  and  _128
REMARK   61  A    between atoms: _132  and  _134
REMARK   62  A    between atoms: _134  and  _135
REMARK   63  A    between atoms: _137  and  _139
REMARK   64  A    between atoms: _139  and  _140
REMARK   65  A    between atoms: _139  and  _142
REMARK   66  A    between atoms: _142  and  _143
REMARK   67  A    between atoms: _146  and  _148
REMARK   68  A    between atoms: _148  and  _149
REMARK   69  A    between atoms: _148  and  _151
REMARK   70  A    between atoms: _154  and  _156
REMARK   71  A    between atoms: _156  and  _157
REMARK   72  A    between atoms: _156  and  _159
REMARK   73  A    between atoms: _159  and  _160
REMARK   74  A    between atoms: _163  and  _165
REMARK   75  A    between atoms: _165  and  _166
REMARK   76  A    between atoms: _165  and  _168
REMARK   77  A    between atoms: _168  and  _169
REMARK   78  A    between atoms: _175  and  _177
REMARK   79  A    between atoms: _177  and  _178
REMARK   80  A    between atoms: _177  and  _180
REMARK   81  A    between atoms: _180  and  _181
REMARK   82  A    between atoms: _181  and  _183
REMARK   83  A    between atoms: _183  and  MG_609
REMARK   84  A    between atoms: _184  and  _186
REMARK   85  A    between atoms: _186  and  _187
REMARK   86  A    between atoms: _186  and  _189
REMARK   87  A    between atoms: _189  and  _190
REMARK   88  A    between atoms: _190  and  _191
REMARK   89  A    between atoms: _191  and  _192
REMARK   90  A    between atoms: _201  and  _203
REMARK   91  A    between atoms: _203  and  _204
REMARK   92  A    between atoms: _203  and  _206
REMARK   93  A    between atoms: _206  and  _207
REMARK   94  A    between atoms: _207  and  _208
REMARK   95  A    between atoms: _210  and  _212
REMARK   96  A    between atoms: _212  and  _213
REMARK   97  A    between atoms: _212  and  _215
REMARK   98  A    between atoms: _215  and  _216
REMARK   99  A    between atoms: _216  and  _217
REMARK  100  A    between atoms: _220  and  _222
REMARK  101  A    between atoms: _222  and  _223
REMARK  102  A    between atoms: _222  and  _225
REMARK  103  A    between atoms: _225  and  _226
REMARK  104  A    between atoms: _231  and  _233
REMARK  105  A    between atoms: _233  and  _234
REMARK  106  A    between atoms: _233  and  _236
REMARK  107  A    between atoms: _239  and  _241
REMARK  108  A    between atoms: _241  and  _242
REMARK  109  A    between atoms: _244  and  _246
REMARK  110  A    between atoms: _246  and  _247
REMARK  111  A    between atoms: _246  and  _249
REMARK  112  A    between atoms: _249  and  _250
REMARK  113  A    between atoms: _255  and  _257
REMARK  114  A    between atoms: _257  and  _258
REMARK  115  A    between atoms: _257  and  _260
REMARK  116  A    between atoms: _263  and  _265
REMARK  117  A    between atoms: _265  and  _266
REMARK  118  A    between atoms: _265  and  _268
REMARK  119  A    between atoms: _268  and  _269
REMARK  120  A    between atoms: _272  and  _274
REMARK  121  A    between atoms: _274  and  _275
REMARK  122  A    between atoms: _274  and  _277
REMARK  123  A    between atoms: _277  and  _278
REMARK  124  A    between atoms: _280  and  _282
REMARK  125  A    between atoms: _282  and  _283
REMARK  126  A    between atoms: _282  and  _285
REMARK  127  A    between atoms: _285  and  _286
REMARK  128  A    between atoms: _289  and  _291
REMARK  129  A    between atoms: _291  and  _292
REMARK  130  A    between atoms: _291  and  _294
REMARK  131  A    between atoms: _294  and  _295
REMARK  132  A    between atoms: _298  and  _300
REMARK  133  A    between atoms: _300  and  _301
REMARK  134  A    between atoms: _300  and  _303
REMARK  135  A    between atoms: _303  and  _304
REMARK  136  A    between atoms: _304  and  _305
REMARK  137  A    between atoms: _308  and  _310
REMARK  138  A    between atoms: _310  and  _311
REMARK  139  A    between atoms: _310  and  _313
REMARK  140  A    between atoms: _313  and  _314
REMARK  141  A    between atoms: _317  and  _319
REMARK  142  A    between atoms: _319  and  _320
REMARK  143  A    between atoms: _319  and  _322
REMARK  144  A    between atoms: _322  and  _323
REMARK  145  A    between atoms: _328  and  _330
REMARK  146  A    between atoms: _330  and  _331
REMARK  147  A    between atoms: _330  and  _333
REMARK  148  A    between atoms: _333  and  _334
REMARK  149  A    between atoms: _334  and  _335
REMARK  150  A    between atoms: _335  and  _336
REMARK  151  A    between atoms: _336  and  _337
REMARK  152  A    between atoms: _341  and  _343
REMARK  153  A    between atoms: _343  and  _344
REMARK  154  A    between atoms: _343  and  _346
REMARK  155  A    between atoms: _346  and  _347
REMARK  156  A    between atoms: _350  and  _352
REMARK  157  A    between atoms: _352  and  _353
REMARK  158  A    between atoms: _352  and  _355
REMARK  159  A    between atoms: _355  and  _356
REMARK  160  A    between atoms: _359  and  _361
REMARK  161  A    between atoms: _361  and  _362
REMARK  162  A    between atoms: _361  and  _364
REMARK  163  A    between atoms: _364  and  _365
REMARK  164  A    between atoms: _368  and  _370
REMARK  165  A    between atoms: _370  and  _371
REMARK  166  A    between atoms: _374  and  _376
REMARK  167  A    between atoms: _376  and  _377
REMARK  168  A    between atoms: _376  and  _379
REMARK  169  A    between atoms: _379  and  _380
REMARK  170  A    between atoms: _383  and  _385
REMARK  171  A    between atoms: _385  and  _386
REMARK  172  A    between atoms: _385  and  _388
REMARK  173  A    between atoms: _388  and  _389
REMARK  174  A    between atoms: _391  and  _393
REMARK  175  A    between atoms: _393  and  _394
REMARK  176  A    between atoms: _393  and  _396
REMARK  177  A    between atoms: _396  and  _397
REMARK  178  A    between atoms: _400  and  _402
REMARK  179  A    between atoms: _402  and  _403
REMARK  180  A    between atoms: _402  and  _405
REMARK  181  A    between atoms: _405  and  _406
REMARK  182  A    between atoms: _406  and  _407
REMARK  183  A    between atoms: _407  and  _408
REMARK  184  A    between atoms: _408  and  _409
REMARK  185  A    between atoms: _413  and  _415
REMARK  186  A    between atoms: _415  and  _416
REMARK  187  A    between atoms: _415  and  _418
REMARK  188  A    between atoms: _418  and  _419
REMARK  189  A    between atoms: _422  and  _424
REMARK  190  A    between atoms: _424  and  _425
REMARK  191  A    between atoms: _424  and  _427
REMARK  192  A    between atoms: _427  and  _428
REMARK  193  A    between atoms: _428  and  _429
REMARK  194  A    between atoms: _431  and  _433
REMARK  195  A    between atoms: _433  and  _434
REMARK  196  A    between atoms: _433  and  _436
REMARK  197  A    between atoms: _436  and  _437
REMARK  198  A    between atoms: _437  and  _438
REMARK  199  A    between atoms: _441  and  _443
REMARK  200  A    between atoms: _443  and  _444
REMARK  201  A    between atoms: _443  and  _446
REMARK  202  A    between atoms: _446  and  _447
REMARK  203  A    between atoms: _450  and  _452
REMARK  204  A    between atoms: _452  and  _453
REMARK  205  A    between atoms: _452  and  _455
REMARK  206  A    between atoms: _455  and  _456
REMARK  207  A    between atoms: _458  and  _460
REMARK  208  A    between atoms: _460  and  _461
REMARK  209  A    between atoms: _460  and  _463
REMARK  210  A    between atoms: _463  and  _464
REMARK  211  A    between atoms: _467  and  _469
REMARK  212  A    between atoms: _469  and  _470
REMARK  213  A    between atoms: _469  and  _472
REMARK  214  A    between atoms: _472  and  _473
REMARK  215  A    between atoms: _476  and  _478
REMARK  216  A    between atoms: _478  and  _479
REMARK  217  A    between atoms: _478  and  _481
REMARK  218  A    between atoms: _481  and  _482
REMARK  219  A    between atoms: _482  and  _483
REMARK  220  A    between atoms: _486  and  _488
REMARK  221  A    between atoms: _488  and  _489
REMARK  222  A    between atoms: _491  and  _493
REMARK  223  A    between atoms: _493  and  _494
REMARK  224  A    between atoms: _493  and  _496
REMARK  225  A    between atoms: _496  and  _497
REMARK  226  A    between atoms: _500  and  _502
REMARK  227  A    between atoms: _502  and  _503
REMARK  228  A    between atoms: _502  and  _505
REMARK  229  A    between atoms: _505  and  _506
REMARK  230  A    between atoms: _509  and  _511
REMARK  231  A    between atoms: _511  and  _512
REMARK  232  A    between atoms: _511  and  _514
REMARK  233  A    between atoms: _514  and  _515
REMARK  234  A    between atoms: _518  and  _520
REMARK  235  A    between atoms: _520  and  _521
REMARK  236  A    between atoms: _520  and  _523
REMARK  237  A    between atoms: _523  and  _524
REMARK  238  A    between atoms: _527  and  _529
REMARK  239  A    between atoms: _529  and  _530
REMARK  240  A    between atoms: _529  and  _532
REMARK  241  A    between atoms: _532  and  _533
REMARK  242  A    between atoms: _533  and  _534
REMARK  243  A    between atoms: _534  and  _535
REMARK  244  A    between atoms: _535  and  _536
REMARK  245  A    between atoms: _540  and  _542
REMARK  246  A    between atoms: _542  and  _543
REMARK  247  A    between atoms: _542  and  _545
REMARK  248  A    between atoms: _545  and  _546
REMARK  249  A    between atoms: _551  and  _553
REMARK  250  A    between atoms: _553  and  _554
REMARK  251  A    between atoms: _553  and  _556
REMARK  252  A    between atoms: _556  and  _557
REMARK  253  A    between atoms: _560  and  _562
REMARK  254  A    between atoms: _562  and  _563
REMARK  255  A    between atoms: _566  and  _568
REMARK  256  A    between atoms: _568  and  _569
REMARK  257  A    between atoms: _568  and  _571
REMARK  258  A    between atoms: _571  and  _572
REMARK  259  A    between atoms: _575  and  _577
REMARK  260  A    between atoms: _577  and  _578
REMARK  261  A    between atoms: _581  and  _583
REMARK  262  A    between atoms: _583  and  _584
REMARK  263  A    between atoms: _583  and  _586
REMARK  264  A    between atoms: _589  and  _591
REMARK  265  A    between atoms: _591  and  _592
REMARK  266  A    between atoms: _594  and  _596
REMARK  267  A    between atoms: _596  and  _597
REMARK  268  A    between atoms: _600  and  _602
REMARK  269  A    between atoms: _602  and  _603
REMARK  270  A    between atoms: _602  and  _605
REMARK  271  A    between atoms: _605  and  _606
REMARK                            x       y       z     vdW  Elec       q    Type
REMARK                         _______ _______ _______ _____ _____    ______ ____
ROOT
ATOM      1  O   HOH     1     -12.330  17.272 -28.136  0.00  0.00    +0.000 OA
ENDROOT
TORSDOF 0
REMARK  Name = ../refined-set-2016/2hf8/2hf8_pocket.pdb
REMARK  271 active torsions:
REMARK  status: ('A' for Active; 'I' for Inactive)
REMARK    1  A    between atoms: _1  and  _3
REMARK    2  A    between atoms: _3  and  _4
REMARK    3  A    between atoms: _3  and  _6
REMARK    4  A    between atoms: _6  and  _7
REMARK    5  A    between atoms: _13  and  _15
REMARK    6  A    between atoms: _15  and  _16
REMARK    7  A    between atoms: _15  and  _18
REMARK    8  A    between atoms: _18  and  _19
REMARK    9  A    between atoms: _19  and  _20
REMARK   10  A    between atoms: _22  and  _24
REMARK   11  A    between atoms: _24  and  _25
REMARK   12  A    between atoms: _27  and  _29
REMARK   13  A    between atoms: _29  and  _30
REMARK   14  A    between atoms: _33  and  _35
REMARK   15  A    between atoms: _35  and  _36
REMARK   16  A    between atoms: _35  and  _38
REMARK   17  A    between atoms: _38  and  _39
REMARK   18  A    between atoms: _42  and  _44
REMARK   19  A    between atoms: _44  and  _45
REMARK   20  A    between atoms: _47  and  _49
REMARK   21  A    between atoms: _49  and  _50
REMARK   22  A    between atoms: _49  and  _52
REMARK   23  A    between atoms: _52  and  _53
REMARK   24  A    between atoms: _55  and  _57
REMARK   25  A    between atoms: _57  and  _58
REMARK   26  A    between atoms: _60  and  _62
REMARK   27  A    between atoms: _62  and  _63
REMARK   28  A    between atoms: _62  and  _65
REMARK   29  A    between atoms: _65  and  _66
REMARK   30  A    between atoms: _66  and  _67
REMARK   31  A    between atoms: _67  and  _68
REMARK   32  A    between atoms: _68  and  _69
REMARK   33  A    between atoms: _73  and  _75
REMARK   34  A    between atoms: _75  and  _76
REMARK   35  A    between atoms: _75  and  _78
REMARK   36  A    between atoms: _78  and  _79
REMARK   37  A    between atoms: _82  and  _84
REMARK   38  A    between atoms: _84  and  _85
REMARK   39  A    between atoms: _84  and  _87
REMARK   40  A    between atoms: _87  and  _88
REMARK   41  A    between atoms: _91  and  _93
REMARK   42  A    between atoms: _93  and  _94
REMARK   43  A    between atoms: _93  and  _96
REMARK   44  A    between atoms: _96  and  _97
REMARK   45  A    between atoms: _100  and  _102
REMARK   46  A    between atoms: _102  and  _103
REMARK   47  A    between atoms: _102  and  _105
REMARK   48  A    between atoms: _105  and  _106
REMARK   49  A    between atoms: _109  and  _111
REMARK   50  A    between atoms: _111  and  _112
REMARK   51  A    between atoms: _111  and  _114
REMARK   52  A    between atoms: _114  and  _115
REMARK   53  A    between atoms: _115  and  _116
REMARK   54  A    between atoms: _119  and  _121
REMARK   55  A    between atoms: _121  and  _122
REMARK   56  A    between atoms: _121  and  _124
REMARK   57  A    between atoms: _124  and  _125
REMARK   58  A    between atoms: _125  and  _126
REMARK   59  A    between atoms: _126  and  _127
REMARK   60  A    between atoms: _127  and  _128
REMARK   61  A    between atoms: _132  and  _134
REMARK   62  A    between atoms: _134  and  _135
REMARK   63  A    between atoms: _137  and  _139
REMARK   64  A    between atoms: _139  and  _140
REMARK   65  A    between atoms: _139  and  _142
REMARK   66  A    between atoms: _142  and  _143
REMARK   67  A    between atoms: _146  and  _148
REMARK   68  A    between atoms: _148  and  _149
REMARK   69  A    between atoms: _148  and  _151
REMARK   70  A    between atoms: _154  and  _156
REMARK   71  A    between atoms: _156  and  _157
REMARK   72  A    between atoms: _156  and  _159
REMARK   73  A    between atoms: _159  and  _160
REMARK   74  A    between atoms: _163  and  _165
REMARK   75  A    between atoms: _165  and  _166
REMARK   76  A    between atoms: _165  and  _168
REMARK   77  A    between atoms: _168  and  _169
REMARK   78  A    between atoms: _175  and  _177
REMARK   79  A    between atoms: _177  and  _178
REMARK   80  A    between atoms: _177  and  _180
REMARK   81  A    between atoms: _180  and  _181
REMARK   82  A    between atoms: _181  and  _183
REMARK   83  A    between atoms: _183  and  MG_609
REMARK   84  A    between atoms: _184  and  _186
REMARK   85  A    between atoms: _186  and  _187
REMARK   86  A    between atoms: _186  and  _189
REMARK   87  A    between atoms: _189  and  _190
REMARK   88  A    between atoms: _190  and  _191
REMARK   89  A    between atoms: _191  and  _192
REMARK   90  A    between atoms: _201  and  _203
REMARK   91  A    between atoms: _203  and  _204
REMARK   92  A    between atoms: _203  and  _206
REMARK   93  A    between atoms: _206  and  _207
REMARK   94  A    between atoms: _207  and  _208
REMARK   95  A    between atoms: _210  and  _212
REMARK   96  A    between atoms: _212  and  _213
REMARK   97  A    between atoms: _212  and  _215
REMARK   98  A    between atoms: _215  and  _216
REMARK   99  A    between atoms: _216  and  _217
REMARK  100  A    between atoms: _220  and  _222
REMARK  101  A    between atoms: _222  and  _223
REMARK  102  A    between atoms: _222  and  _225
REMARK  103  A    between atoms: _225  and  _226
REMARK  104  A    between atoms: _231  and  _233
REMARK  105  A    between atoms: _233  and  _234
REMARK  106  A    between atoms: _233  and  _236
REMARK  107  A    between atoms: _239  and  _241
REMARK  108  A    between atoms: _241  and  _242
REMARK  109  A    between atoms: _244  and  _246
REMARK  110  A    between atoms: _246  and  _247
REMARK  111  A    between atoms: _246  and  _249
REMARK  112  A    between atoms: _249  and  _250
REMARK  113  A    between atoms: _255  and  _257
REMARK  114  A    between atoms: _257  and  _258
REMARK  115  A    between atoms: _257  and  _260
REMARK  116  A    between atoms: _263  and  _265
REMARK  117  A    between atoms: _265  and  _266
REMARK  118  A    between atoms: _265  and  _268
REMARK  119  A    between atoms: _268  and  _269
REMARK  120  A    between atoms: _272  and  _274
REMARK  121  A    between atoms: _274  and  _275
REMARK  122  A    between atoms: _274  and  _277
REMARK  123  A    between atoms: _277  and  _278
REMARK  124  A    between atoms: _280  and  _282
REMARK  125  A    between atoms: _282  and  _283
REMARK  126  A    between atoms: _282  and  _285
REMARK  127  A    between atoms: _285  and  _286
REMARK  128  A    between atoms: _289  and  _291
REMARK  129  A    between atoms: _291  and  _292
REMARK  130  A    between atoms: _291  and  _294
REMARK  131  A    between atoms: _294  and  _295
REMARK  132  A    between atoms: _298  and  _300
REMARK  133  A    between atoms: _300  and  _301
REMARK  134  A    between atoms: _300  and  _303
REMARK  135  A    between atoms: _303  and  _304
REMARK  136  A    between atoms: _304  and  _305
REMARK  137  A    between atoms: _308  and  _310
REMARK  138  A    between atoms: _310  and  _311
REMARK  139  A    between atoms: _310  and  _313
REMARK  140  A    between atoms: _313  and  _314
REMARK  141  A    between atoms: _317  and  _319
REMARK  142  A    between atoms: _319  and  _320
REMARK  143  A    between atoms: _319  and  _322
REMARK  144  A    between atoms: _322  and  _323
REMARK  145  A    between atoms: _328  and  _330
REMARK  146  A    between atoms: _330  and  _331
REMARK  147  A    between atoms: _330  and  _333
REMARK  148  A    between atoms: _333  and  _334
REMARK  149  A    between atoms: _334  and  _335
REMARK  150  A    between atoms: _335  and  _336
REMARK  151  A    between atoms: _336  and  _337
REMARK  152  A    between atoms: _341  and  _343
REMARK  153  A    between atoms: _343  and  _344
REMARK  154  A    between atoms: _343  and  _346
REMARK  155  A    between atoms: _346  and  _347
REMARK  156  A    between atoms: _350  and  _352
REMARK  157  A    between atoms: _352  and  _353
REMARK  158  A    between atoms: _352  and  _355
REMARK  159  A    between atoms: _355  and  _356
REMARK  160  A    between atoms: _359  and  _361
REMARK  161  A    between atoms: _361  and  _362
REMARK  162  A    between atoms: _361  and  _364
REMARK  163  A    between atoms: _364  and  _365
REMARK  164  A    between atoms: _368  and  _370
REMARK  165  A    between atoms: _370  and  _371
REMARK  166  A    between atoms: _374  and  _376
REMARK  167  A    between atoms: _376  and  _377
REMARK  168  A    between atoms: _376  and  _379
REMARK  169  A    between atoms: _379  and  _380
REMARK  170  A    between atoms: _383  and  _385
REMARK  171  A    between atoms: _385  and  _386
REMARK  172  A    between atoms: _385  and  _388
REMARK  173  A    between atoms: _388  and  _389
REMARK  174  A    between atoms: _391  and  _393
REMARK  175  A    between atoms: _393  and  _394
REMARK  176  A    between atoms: _393  and  _396
REMARK  177  A    between atoms: _396  and  _397
REMARK  178  A    between atoms: _400  and  _402
REMARK  179  A    between atoms: _402  and  _403
REMARK  180  A    between atoms: _402  and  _405
REMARK  181  A    between atoms: _405  and  _406
REMARK  182  A    between atoms: _406  and  _407
REMARK  183  A    between atoms: _407  and  _408
REMARK  184  A    between atoms: _408  and  _409
REMARK  185  A    between atoms: _413  and  _415
REMARK  186  A    between atoms: _415  and  _416
REMARK  187  A    between atoms: _415  and  _418
REMARK  188  A    between atoms: _418  and  _419
REMARK  189  A    between atoms: _422  and  _424
REMARK  190  A    between atoms: _424  and  _425
REMARK  191  A    between atoms: _424  and  _427
REMARK  192  A    between atoms: _427  and  _428
REMARK  193  A    between atoms: _428  and  _429
REMARK  194  A    between atoms: _431  and  _433
REMARK  195  A    between atoms: _433  and  _434
REMARK  196  A    between atoms: _433  and  _436
REMARK  197  A    between atoms: _436  and  _437
REMARK  198  A    between atoms: _437  and  _438
REMARK  199  A    between atoms: _441  and  _443
REMARK  200  A    between atoms: _443  and  _444
REMARK  201  A    between atoms: _443  and  _446
REMARK  202  A    between atoms: _446  and  _447
REMARK  203  A    between atoms: _450  and  _452
REMARK  204  A    between atoms: _452  and  _453
REMARK  205  A    between atoms: _452  and  _455
REMARK  206  A    between atoms: _455  and  _456
REMARK  207  A    between atoms: _458  and  _460
REMARK  208  A    between atoms: _460  and  _461
REMARK  209  A    between atoms: _460  and  _463
REMARK  210  A    between atoms: _463  and  _464
REMARK  211  A    between atoms: _467  and  _469
REMARK  212  A    between atoms: _469  and  _470
REMARK  213  A    between atoms: _469  and  _472
REMARK  214  A    between atoms: _472  and  _473
REMARK  215  A    between atoms: _476  and  _478
REMARK  216  A    between atoms: _478  and  _479
REMARK  217  A    between atoms: _478  and  _481
REMARK  218  A    between atoms: _481  and  _482
REMARK  219  A    between atoms: _482  and  _483
REMARK  220  A    between atoms: _486  and  _488
REMARK  221  A    between atoms: _488  and  _489
REMARK  222  A    between atoms: _491  and  _493
REMARK  223  A    between atoms: _493  and  _494
REMARK  224  A    between atoms: _493  and  _496
REMARK  225  A    between atoms: _496  and  _497
REMARK  226  A    between atoms: _500  and  _502
REMARK  227  A    between atoms: _502  and  _503
REMARK  228  A    between atoms: _502  and  _505
REMARK  229  A    between atoms: _505  and  _506
REMARK  230  A    between atoms: _509  and  _511
REMARK  231  A    between atoms: _511  and  _512
REMARK  232  A    between atoms: _511  and  _514
REMARK  233  A    between atoms: _514  and  _515
REMARK  234  A    between atoms: _518  and  _520
REMARK  235  A    between atoms: _520  and  _521
REMARK  236  A    between atoms: _520  and  _523
REMARK  237  A    between atoms: _523  and  _524
REMARK  238  A    between atoms: _527  and  _529
REMARK  239  A    between atoms: _529  and  _530
REMARK  240  A    between atoms: _529  and  _532
REMARK  241  A    between atoms: _532  and  _533
REMARK  242  A    between atoms: _533  and  _534
REMARK  243  A    between atoms: _534  and  _535
REMARK  244  A    between atoms: _535  and  _536
REMARK  245  A    between atoms: _540  and  _542
REMARK  246  A    between atoms: _542  and  _543
REMARK  247  A    between atoms: _542  and  _545
REMARK  248  A    between atoms: _545  and  _546
REMARK  249  A    between atoms: _551  and  _553
REMARK  250  A    between atoms: _553  and  _554
REMARK  251  A    between atoms: _553  and  _556
REMARK  252  A    between atoms: _556  and  _557
REMARK  253  A    between atoms: _560  and  _562
REMARK  254  A    between atoms: _562  and  _563
REMARK  255  A    between atoms: _566  and  _568
REMARK  256  A    between atoms: _568  and  _569
REMARK  257  A    between atoms: _568  and  _571
REMARK  258  A    between atoms: _571  and  _572
REMARK  259  A    between atoms: _575  and  _577
REMARK  260  A    between atoms: _577  and  _578
REMARK  261  A    between atoms: _581  and  _583
REMARK  262  A    between atoms: _583  and  _584
REMARK  263  A    between atoms: _583  and  _586
REMARK  264  A    between atoms: _589  and  _591
REMARK  265  A    between atoms: _591  and  _592
REMARK  266  A    between atoms: _594  and  _596
REMARK  267  A    between atoms: _596  and  _597
REMARK  268  A    between atoms: _600  and  _602
REMARK  269  A    between atoms: _602  and  _603
REMARK  270  A    between atoms: _602  and  _605
REMARK  271  A    between atoms: _605  and  _606
REMARK                            x       y       z     vdW  Elec       q    Type
REMARK                         _______ _______ _______ _____ _____    ______ ____
ROOT
ATOM      1  O   HOH     1      -5.171  17.755 -37.414  0.00  0.00    +0.000 OA
ENDROOT
TORSDOF 0
REMARK  Name = ../refined-set-2016/2hf8/2hf8_pocket.pdb
REMARK  271 active torsions:
REMARK  status: ('A' for Active; 'I' for Inactive)
REMARK    1  A    between atoms: _1  and  _3
REMARK    2  A    between atoms: _3  and  _4
REMARK    3  A    between atoms: _3  and  _6
REMARK    4  A    between atoms: _6  and  _7
REMARK    5  A    between atoms: _13  and  _15
REMARK    6  A    between atoms: _15  and  _16
REMARK    7  A    between atoms: _15  and  _18
REMARK    8  A    between atoms: _18  and  _19
REMARK    9  A    between atoms: _19  and  _20
REMARK   10  A    between atoms: _22  and  _24
REMARK   11  A    between atoms: _24  and  _25
REMARK   12  A    between atoms: _27  and  _29
REMARK   13  A    between atoms: _29  and  _30
REMARK   14  A    between atoms: _33  and  _35
REMARK   15  A    between atoms: _35  and  _36
REMARK   16  A    between atoms: _35  and  _38
REMARK   17  A    between atoms: _38  and  _39
REMARK   18  A    between atoms: _42  and  _44
REMARK   19  A    between atoms: _44  and  _45
REMARK   20  A    between atoms: _47  and  _49
REMARK   21  A    between atoms: _49  and  _50
REMARK   22  A    between atoms: _49  and  _52
REMARK   23  A    between atoms: _52  and  _53
REMARK   24  A    between atoms: _55  and  _57
REMARK   25  A    between atoms: _57  and  _58
REMARK   26  A    between atoms: _60  and  _62
REMARK   27  A    between atoms: _62  and  _63
REMARK   28  A    between atoms: _62  and  _65
REMARK   29  A    between atoms: _65  and  _66
REMARK   30  A    between atoms: _66  and  _67
REMARK   31  A    between atoms: _67  and  _68
REMARK   32  A    between atoms: _68  and  _69
REMARK   33  A    between atoms: _73  and  _75
REMARK   34  A    between atoms: _75  and  _76
REMARK   35  A    between atoms: _75  and  _78
REMARK   36  A    between atoms: _78  and  _79
REMARK   37  A    between atoms: _82  and  _84
REMARK   38  A    between atoms: _84  and  _85
REMARK   39  A    between atoms: _84  and  _87
REMARK   40  A    between atoms: _87  and  _88
REMARK   41  A    between atoms: _91  and  _93
REMARK   42  A    between atoms: _93  and  _94
REMARK   43  A    between atoms: _93  and  _96
REMARK   44  A    between atoms: _96  and  _97
REMARK   45  A    between atoms: _100  and  _102
REMARK   46  A    between atoms: _102  and  _103
REMARK   47  A    between atoms: _102  and  _105
REMARK   48  A    between atoms: _105  and  _106
REMARK   49  A    between atoms: _109  and  _111
REMARK   50  A    between atoms: _111  and  _112
REMARK   51  A    between atoms: _111  and  _114
REMARK   52  A    between atoms: _114  and  _115
REMARK   53  A    between atoms: _115  and  _116
REMARK   54  A    between atoms: _119  and  _121
REMARK   55  A    between atoms: _121  and  _122
REMARK   56  A    between atoms: _121  and  _124
REMARK   57  A    between atoms: _124  and  _125
REMARK   58  A    between atoms: _125  and  _126
REMARK   59  A    between atoms: _126  and  _127
REMARK   60  A    between atoms: _127  and  _128
REMARK   61  A    between atoms: _132  and  _134
REMARK   62  A    between atoms: _134  and  _135
REMARK   63  A    between atoms: _137  and  _139
REMARK   64  A    between atoms: _139  and  _140
REMARK   65  A    between atoms: _139  and  _142
REMARK   66  A    between atoms: _142  and  _143
REMARK   67  A    between atoms: _146  and  _148
REMARK   68  A    between atoms: _148  and  _149
REMARK   69  A    between atoms: _148  and  _151
REMARK   70  A    between atoms: _154  and  _156
REMARK   71  A    between atoms: _156  and  _157
REMARK   72  A    between atoms: _156  and  _159
REMARK   73  A    between atoms: _159  and  _160
REMARK   74  A    between atoms: _163  and  _165
REMARK   75  A    between atoms: _165  and  _166
REMARK   76  A    between atoms: _165  and  _168
REMARK   77  A    between atoms: _168  and  _169
REMARK   78  A    between atoms: _175  and  _177
REMARK   79  A    between atoms: _177  and  _178
REMARK   80  A    between atoms: _177  and  _180
REMARK   81  A    between atoms: _180  and  _181
REMARK   82  A    between atoms: _181  and  _183
REMARK   83  A    between atoms: _183  and  MG_609
REMARK   84  A    between atoms: _184  and  _186
REMARK   85  A    between atoms: _186  and  _187
REMARK   86  A    between atoms: _186  and  _189
REMARK   87  A    between atoms: _189  and  _190
REMARK   88  A    between atoms: _190  and  _191
REMARK   89  A    between atoms: _191  and  _192
REMARK   90  A    between atoms: _201  and  _203
REMARK   91  A    between atoms: _203  and  _204
REMARK   92  A    between atoms: _203  and  _206
REMARK   93  A    between atoms: _206  and  _207
REMARK   94  A    between atoms: _207  and  _208
REMARK   95  A    between atoms: _210  and  _212
REMARK   96  A    between atoms: _212  and  _213
REMARK   97  A    between atoms: _212  and  _215
REMARK   98  A    between atoms: _215  and  _216
REMARK   99  A    between atoms: _216  and  _217
REMARK  100  A    between atoms: _220  and  _222
REMARK  101  A    between atoms: _222  and  _223
REMARK  102  A    between atoms: _222  and  _225
REMARK  103  A    between atoms: _225  and  _226
REMARK  104  A    between atoms: _231  and  _233
REMARK  105  A    between atoms: _233  and  _234
REMARK  106  A    between atoms: _233  and  _236
REMARK  107  A    between atoms: _239  and  _241
REMARK  108  A    between atoms: _241  and  _242
REMARK  109  A    between atoms: _244  and  _246
REMARK  110  A    between atoms: _246  and  _247
REMARK  111  A    between atoms: _246  and  _249
REMARK  112  A    between atoms: _249  and  _250
REMARK  113  A    between atoms: _255  and  _257
REMARK  114  A    between atoms: _257  and  _258
REMARK  115  A    between atoms: _257  and  _260
REMARK  116  A    between atoms: _263  and  _265
REMARK  117  A    between atoms: _265  and  _266
REMARK  118  A    between atoms: _265  and  _268
REMARK  119  A    between atoms: _268  and  _269
REMARK  120  A    between atoms: _272  and  _274
REMARK  121  A    between atoms: _274  and  _275
REMARK  122  A    between atoms: _274  and  _277
REMARK  123  A    between atoms: _277  and  _278
REMARK  124  A    between atoms: _280  and  _282
REMARK  125  A    between atoms: _282  and  _283
REMARK  126  A    between atoms: _282  and  _285
REMARK  127  A    between atoms: _285  and  _286
REMARK  128  A    between atoms: _289  and  _291
REMARK  129  A    between atoms: _291  and  _292
REMARK  130  A    between atoms: _291  and  _294
REMARK  131  A    between atoms: _294  and  _295
REMARK  132  A    between atoms: _298  and  _300
REMARK  133  A    between atoms: _300  and  _301
REMARK  134  A    between atoms: _300  and  _303
REMARK  135  A    between atoms: _303  and  _304
REMARK  136  A    between atoms: _304  and  _305
REMARK  137  A    between atoms: _308  and  _310
REMARK  138  A    between atoms: _310  and  _311
REMARK  139  A    between atoms: _310  and  _313
REMARK  140  A    between atoms: _313  and  _314
REMARK  141  A    between atoms: _317  and  _319
REMARK  142  A    between atoms: _319  and  _320
REMARK  143  A    between atoms: _319  and  _322
REMARK  144  A    between atoms: _322  and  _323
REMARK  145  A    between atoms: _328  and  _330
REMARK  146  A    between atoms: _330  and  _331
REMARK  147  A    between atoms: _330  and  _333
REMARK  148  A    between atoms: _333  and  _334
REMARK  149  A    between atoms: _334  and  _335
REMARK  150  A    between atoms: _335  and  _336
REMARK  151  A    between atoms: _336  and  _337
REMARK  152  A    between atoms: _341  and  _343
REMARK  153  A    between atoms: _343  and  _344
REMARK  154  A    between atoms: _343  and  _346
REMARK  155  A    between atoms: _346  and  _347
REMARK  156  A    between atoms: _350  and  _352
REMARK  157  A    between atoms: _352  and  _353
REMARK  158  A    between atoms: _352  and  _355
REMARK  159  A    between atoms: _355  and  _356
REMARK  160  A    between atoms: _359  and  _361
REMARK  161  A    between atoms: _361  and  _362
REMARK  162  A    between atoms: _361  and  _364
REMARK  163  A    between atoms: _364  and  _365
REMARK  164  A    between atoms: _368  and  _370
REMARK  165  A    between atoms: _370  and  _371
REMARK  166  A    between atoms: _374  and  _376
REMARK  167  A    between atoms: _376  and  _377
REMARK  168  A    between atoms: _376  and  _379
REMARK  169  A    between atoms: _379  and  _380
REMARK  170  A    between atoms: _383  and  _385
REMARK  171  A    between atoms: _385  and  _386
REMARK  172  A    between atoms: _385  and  _388
REMARK  173  A    between atoms: _388  and  _389
REMARK  174  A    between atoms: _391  and  _393
REMARK  175  A    between atoms: _393  and  _394
REMARK  176  A    between atoms: _393  and  _396
REMARK  177  A    between atoms: _396  and  _397
REMARK  178  A    between atoms: _400  and  _402
REMARK  179  A    between atoms: _402  and  _403
REMARK  180  A    between atoms: _402  and  _405
REMARK  181  A    between atoms: _405  and  _406
REMARK  182  A    between atoms: _406  and  _407
REMARK  183  A    between atoms: _407  and  _408
REMARK  184  A    between atoms: _408  and  _409
REMARK  185  A    between atoms: _413  and  _415
REMARK  186  A    between atoms: _415  and  _416
REMARK  187  A    between atoms: _415  and  _418
REMARK  188  A    between atoms: _418  and  _419
REMARK  189  A    between atoms: _422  and  _424
REMARK  190  A    between atoms: _424  and  _425
REMARK  191  A    between atoms: _424  and  _427
REMARK  192  A    between atoms: _427  and  _428
REMARK  193  A    between atoms: _428  and  _429
REMARK  194  A    between atoms: _431  and  _433
REMARK  195  A    between atoms: _433  and  _434
REMARK  196  A    between atoms: _433  and  _436
REMARK  197  A    between atoms: _436  and  _437
REMARK  198  A    between atoms: _437  and  _438
REMARK  199  A    between atoms: _441  and  _443
REMARK  200  A    between atoms: _443  and  _444
REMARK  201  A    between atoms: _443  and  _446
REMARK  202  A    between atoms: _446  and  _447
REMARK  203  A    between atoms: _450  and  _452
REMARK  204  A    between atoms: _452  and  _453
REMARK  205  A    between atoms: _452  and  _455
REMARK  206  A    between atoms: _455  and  _456
REMARK  207  A    between atoms: _458  and  _460
REMARK  208  A    between atoms: _460  and  _461
REMARK  209  A    between atoms: _460  and  _463
REMARK  210  A    between atoms: _463  and  _464
REMARK  211  A    between atoms: _467  and  _469
REMARK  212  A    between atoms: _469  and  _470
REMARK  213  A    between atoms: _469  and  _472
REMARK  214  A    between atoms: _472  and  _473
REMARK  215  A    between atoms: _476  and  _478
REMARK  216  A    between atoms: _478  and  _479
REMARK  217  A    between atoms: _478  and  _481
REMARK  218  A    between atoms: _481  and  _482
REMARK  219  A    between atoms: _482  and  _483
REMARK  220  A    between atoms: _486  and  _488
REMARK  221  A    between atoms: _488  and  _489
REMARK  222  A    between atoms: _491  and  _493
REMARK  223  A    between atoms: _493  and  _494
REMARK  224  A    between atoms: _493  and  _496
REMARK  225  A    between atoms: _496  and  _497
REMARK  226  A    between atoms: _500  and  _502
REMARK  227  A    between atoms: _502  and  _503
REMARK  228  A    between atoms: _502  and  _505
REMARK  229  A    between atoms: _505  and  _506
REMARK  230  A    between atoms: _509  and  _511
REMARK  231  A    between atoms: _511  and  _512
REMARK  232  A    between atoms: _511  and  _514
REMARK  233  A    between atoms: _514  and  _515
REMARK  234  A    between atoms: _518  and  _520
REMARK  235  A    between atoms: _520  and  _521
REMARK  236  A    between atoms: _520  and  _523
REMARK  237  A    between atoms: _523  and  _524
REMARK  238  A    between atoms: _527  and  _529
REMARK  239  A    between atoms: _529  and  _530
REMARK  240  A    between atoms: _529  and  _532
REMARK  241  A    between atoms: _532  and  _533
REMARK  242  A    between atoms: _533  and  _534
REMARK  243  A    between atoms: _534  and  _535
REMARK  244  A    between atoms: _535  and  _536
REMARK  245  A    between atoms: _540  and  _542
REMARK  246  A    between atoms: _542  and  _543
REMARK  247  A    between atoms: _542  and  _545
REMARK  248  A    between atoms: _545  and  _546
REMARK  249  A    between atoms: _551  and  _553
REMARK  250  A    between atoms: _553  and  _554
REMARK  251  A    between atoms: _553  and  _556
REMARK  252  A    between atoms: _556  and  _557
REMARK  253  A    between atoms: _560  and  _562
REMARK  254  A    between atoms: _562  and  _563
REMARK  255  A    between atoms: _566  and  _568
REMARK  256  A    between atoms: _568  and  _569
REMARK  257  A    between atoms: _568  and  _571
REMARK  258  A    between atoms: _571  and  _572
REMARK  259  A    between atoms: _575  and  _577
REMARK  260  A    between atoms: _577  and  _578
REMARK  261  A    between atoms: _581  and  _583
REMARK  262  A    between atoms: _583  and  _584
REMARK  263  A    between atoms: _583  and  _586
REMARK  264  A    between atoms: _589  and  _591
REMARK  265  A    between atoms: _591  and  _592
REMARK  266  A    between atoms: _594  and  _596
REMARK  267  A    between atoms: _596  and  _597
REMARK  268  A    between atoms: _600  and  _602
REMARK  269  A    between atoms: _602  and  _603
REMARK  270  A    between atoms: _602  and  _605
REMARK  271  A    between atoms: _605  and  _606
REMARK                            x       y       z     vdW  Elec       q    Type
REMARK                         _______ _______ _______ _____ _____    ______ ____
ROOT
ATOM      1  O   HOH     1      -8.274  21.352 -24.059  0.00  0.00    +0.000 OA
ENDROOT
TORSDOF 0
REMARK  Name = ../refined-set-2016/2hf8/2hf8_pocket.pdb
REMARK  271 active torsions:
REMARK  status: ('A' for Active; 'I' for Inactive)
REMARK    1  A    between atoms: _1  and  _3
REMARK    2  A    between atoms: _3  and  _4
REMARK    3  A    between atoms: _3  and  _6
REMARK    4  A    between atoms: _6  and  _7
REMARK    5  A    between atoms: _13  and  _15
REMARK    6  A    between atoms: _15  and  _16
REMARK    7  A    between atoms: _15  and  _18
REMARK    8  A    between atoms: _18  and  _19
REMARK    9  A    between atoms: _19  and  _20
REMARK   10  A    between atoms: _22  and  _24
REMARK   11  A    between atoms: _24  and  _25
REMARK   12  A    between atoms: _27  and  _29
REMARK   13  A    between atoms: _29  and  _30
REMARK   14  A    between atoms: _33  and  _35
REMARK   15  A    between atoms: _35  and  _36
REMARK   16  A    between atoms: _35  and  _38
REMARK   17  A    between atoms: _38  and  _39
REMARK   18  A    between atoms: _42  and  _44
REMARK   19  A    between atoms: _44  and  _45
REMARK   20  A    between atoms: _47  and  _49
REMARK   21  A    between atoms: _49  and  _50
REMARK   22  A    between atoms: _49  and  _52
REMARK   23  A    between atoms: _52  and  _53
REMARK   24  A    between atoms: _55  and  _57
REMARK   25  A    between atoms: _57  and  _58
REMARK   26  A    between atoms: _60  and  _62
REMARK   27  A    between atoms: _62  and  _63
REMARK   28  A    between atoms: _62  and  _65
REMARK   29  A    between atoms: _65  and  _66
REMARK   30  A    between atoms: _66  and  _67
REMARK   31  A    between atoms: _67  and  _68
REMARK   32  A    between atoms: _68  and  _69
REMARK   33  A    between atoms: _73  and  _75
REMARK   34  A    between atoms: _75  and  _76
REMARK   35  A    between atoms: _75  and  _78
REMARK   36  A    between atoms: _78  and  _79
REMARK   37  A    between atoms: _82  and  _84
REMARK   38  A    between atoms: _84  and  _85
REMARK   39  A    between atoms: _84  and  _87
REMARK   40  A    between atoms: _87  and  _88
REMARK   41  A    between atoms: _91  and  _93
REMARK   42  A    between atoms: _93  and  _94
REMARK   43  A    between atoms: _93  and  _96
REMARK   44  A    between atoms: _96  and  _97
REMARK   45  A    between atoms: _100  and  _102
REMARK   46  A    between atoms: _102  and  _103
REMARK   47  A    between atoms: _102  and  _105
REMARK   48  A    between atoms: _105  and  _106
REMARK   49  A    between atoms: _109  and  _111
REMARK   50  A    between atoms: _111  and  _112
REMARK   51  A    between atoms: _111  and  _114
REMARK   52  A    between atoms: _114  and  _115
REMARK   53  A    between atoms: _115  and  _116
REMARK   54  A    between atoms: _119  and  _121
REMARK   55  A    between atoms: _121  and  _122
REMARK   56  A    between atoms: _121  and  _124
REMARK   57  A    between atoms: _124  and  _125
REMARK   58  A    between atoms: _125  and  _126
REMARK   59  A    between atoms: _126  and  _127
REMARK   60  A    between atoms: _127  and  _128
REMARK   61  A    between atoms: _132  and  _134
REMARK   62  A    between atoms: _134  and  _135
REMARK   63  A    between atoms: _137  and  _139
REMARK   64  A    between atoms: _139  and  _140
REMARK   65  A    between atoms: _139  and  _142
REMARK   66  A    between atoms: _142  and  _143
REMARK   67  A    between atoms: _146  and  _148
REMARK   68  A    between atoms: _148  and  _149
REMARK   69  A    between atoms: _148  and  _151
REMARK   70  A    between atoms: _154  and  _156
REMARK   71  A    between atoms: _156  and  _157
REMARK   72  A    between atoms: _156  and  _159
REMARK   73  A    between atoms: _159  and  _160
REMARK   74  A    between atoms: _163  and  _165
REMARK   75  A    between atoms: _165  and  _166
REMARK   76  A    between atoms: _165  and  _168
REMARK   77  A    between atoms: _168  and  _169
REMARK   78  A    between atoms: _175  and  _177
REMARK   79  A    between atoms: _177  and  _178
REMARK   80  A    between atoms: _177  and  _180
REMARK   81  A    between atoms: _180  and  _181
REMARK   82  A    between atoms: _181  and  _183
REMARK   83  A    between atoms: _183  and  MG_609
REMARK   84  A    between atoms: _184  and  _186
REMARK   85  A    between atoms: _186  and  _187
REMARK   86  A    between atoms: _186  and  _189
REMARK   87  A    between atoms: _189  and  _190
REMARK   88  A    between atoms: _190  and  _191
REMARK   89  A    between atoms: _191  and  _192
REMARK   90  A    between atoms: _201  and  _203
REMARK   91  A    between atoms: _203  and  _204
REMARK   92  A    between atoms: _203  and  _206
REMARK   93  A    between atoms: _206  and  _207
REMARK   94  A    between atoms: _207  and  _208
REMARK   95  A    between atoms: _210  and  _212
REMARK   96  A    between atoms: _212  and  _213
REMARK   97  A    between atoms: _212  and  _215
REMARK   98  A    between atoms: _215  and  _216
REMARK   99  A    between atoms: _216  and  _217
REMARK  100  A    between atoms: _220  and  _222
REMARK  101  A    between atoms: _222  and  _223
REMARK  102  A    between atoms: _222  and  _225
REMARK  103  A    between atoms: _225  and  _226
REMARK  104  A    between atoms: _231  and  _233
REMARK  105  A    between atoms: _233  and  _234
REMARK  106  A    between atoms: _233  and  _236
REMARK  107  A    between atoms: _239  and  _241
REMARK  108  A    between atoms: _241  and  _242
REMARK  109  A    between atoms: _244  and  _246
REMARK  110  A    between atoms: _246  and  _247
REMARK  111  A    between atoms: _246  and  _249
REMARK  112  A    between atoms: _249  and  _250
REMARK  113  A    between atoms: _255  and  _257
REMARK  114  A    between atoms: _257  and  _258
REMARK  115  A    between atoms: _257  and  _260
REMARK  116  A    between atoms: _263  and  _265
REMARK  117  A    between atoms: _265  and  _266
REMARK  118  A    between atoms: _265  and  _268
REMARK  119  A    between atoms: _268  and  _269
REMARK  120  A    between atoms: _272  and  _274
REMARK  121  A    between atoms: _274  and  _275
REMARK  122  A    between atoms: _274  and  _277
REMARK  123  A    between atoms: _277  and  _278
REMARK  124  A    between atoms: _280  and  _282
REMARK  125  A    between atoms: _282  and  _283
REMARK  126  A    between atoms: _282  and  _285
REMARK  127  A    between atoms: _285  and  _286
REMARK  128  A    between atoms: _289  and  _291
REMARK  129  A    between atoms: _291  and  _292
REMARK  130  A    between atoms: _291  and  _294
REMARK  131  A    between atoms: _294  and  _295
REMARK  132  A    between atoms: _298  and  _300
REMARK  133  A    between atoms: _300  and  _301
REMARK  134  A    between atoms: _300  and  _303
REMARK  135  A    between atoms: _303  and  _304
REMARK  136  A    between atoms: _304  and  _305
REMARK  137  A    between atoms: _308  and  _310
REMARK  138  A    between atoms: _310  and  _311
REMARK  139  A    between atoms: _310  and  _313
REMARK  140  A    between atoms: _313  and  _314
REMARK  141  A    between atoms: _317  and  _319
REMARK  142  A    between atoms: _319  and  _320
REMARK  143  A    between atoms: _319  and  _322
REMARK  144  A    between atoms: _322  and  _323
REMARK  145  A    between atoms: _328  and  _330
REMARK  146  A    between atoms: _330  and  _331
REMARK  147  A    between atoms: _330  and  _333
REMARK  148  A    between atoms: _333  and  _334
REMARK  149  A    between atoms: _334  and  _335
REMARK  150  A    between atoms: _335  and  _336
REMARK  151  A    between atoms: _336  and  _337
REMARK  152  A    between atoms: _341  and  _343
REMARK  153  A    between atoms: _343  and  _344
REMARK  154  A    between atoms: _343  and  _346
REMARK  155  A    between atoms: _346  and  _347
REMARK  156  A    between atoms: _350  and  _352
REMARK  157  A    between atoms: _352  and  _353
REMARK  158  A    between atoms: _352  and  _355
REMARK  159  A    between atoms: _355  and  _356
REMARK  160  A    between atoms: _359  and  _361
REMARK  161  A    between atoms: _361  and  _362
REMARK  162  A    between atoms: _361  and  _364
REMARK  163  A    between atoms: _364  and  _365
REMARK  164  A    between atoms: _368  and  _370
REMARK  165  A    between atoms: _370  and  _371
REMARK  166  A    between atoms: _374  and  _376
REMARK  167  A    between atoms: _376  and  _377
REMARK  168  A    between atoms: _376  and  _379
REMARK  169  A    between atoms: _379  and  _380
REMARK  170  A    between atoms: _383  and  _385
REMARK  171  A    between atoms: _385  and  _386
REMARK  172  A    between atoms: _385  and  _388
REMARK  173  A    between atoms: _388  and  _389
REMARK  174  A    between atoms: _391  and  _393
REMARK  175  A    between atoms: _393  and  _394
REMARK  176  A    between atoms: _393  and  _396
REMARK  177  A    between atoms: _396  and  _397
REMARK  178  A    between atoms: _400  and  _402
REMARK  179  A    between atoms: _402  and  _403
REMARK  180  A    between atoms: _402  and  _405
REMARK  181  A    between atoms: _405  and  _406
REMARK  182  A    between atoms: _406  and  _407
REMARK  183  A    between atoms: _407  and  _408
REMARK  184  A    between atoms: _408  and  _409
REMARK  185  A    between atoms: _413  and  _415
REMARK  186  A    between atoms: _415  and  _416
REMARK  187  A    between atoms: _415  and  _418
REMARK  188  A    between atoms: _418  and  _419
REMARK  189  A    between atoms: _422  and  _424
REMARK  190  A    between atoms: _424  and  _425
REMARK  191  A    between atoms: _424  and  _427
REMARK  192  A    between atoms: _427  and  _428
REMARK  193  A    between atoms: _428  and  _429
REMARK  194  A    between atoms: _431  and  _433
REMARK  195  A    between atoms: _433  and  _434
REMARK  196  A    between atoms: _433  and  _436
REMARK  197  A    between atoms: _436  and  _437
REMARK  198  A    between atoms: _437  and  _438
REMARK  199  A    between atoms: _441  and  _443
REMARK  200  A    between atoms: _443  and  _444
REMARK  201  A    between atoms: _443  and  _446
REMARK  202  A    between atoms: _446  and  _447
REMARK  203  A    between atoms: _450  and  _452
REMARK  204  A    between atoms: _452  and  _453
REMARK  205  A    between atoms: _452  and  _455
REMARK  206  A    between atoms: _455  and  _456
REMARK  207  A    between atoms: _458  and  _460
REMARK  208  A    between atoms: _460  and  _461
REMARK  209  A    between atoms: _460  and  _463
REMARK  210  A    between atoms: _463  and  _464
REMARK  211  A    between atoms: _467  and  _469
REMARK  212  A    between atoms: _469  and  _470
REMARK  213  A    between atoms: _469  and  _472
REMARK  214  A    between atoms: _472  and  _473
REMARK  215  A    between atoms: _476  and  _478
REMARK  216  A    between atoms: _478  and  _479
REMARK  217  A    between atoms: _478  and  _481
REMARK  218  A    between atoms: _481  and  _482
REMARK  219  A    between atoms: _482  and  _483
REMARK  220  A    between atoms: _486  and  _488
REMARK  221  A    between atoms: _488  and  _489
REMARK  222  A    between atoms: _491  and  _493
REMARK  223  A    between atoms: _493  and  _494
REMARK  224  A    between atoms: _493  and  _496
REMARK  225  A    between atoms: _496  and  _497
REMARK  226  A    between atoms: _500  and  _502
REMARK  227  A    between atoms: _502  and  _503
REMARK  228  A    between atoms: _502  and  _505
REMARK  229  A    between atoms: _505  and  _506
REMARK  230  A    between atoms: _509  and  _511
REMARK  231  A    between atoms: _511  and  _512
REMARK  232  A    between atoms: _511  and  _514
REMARK  233  A    between atoms: _514  and  _515
REMARK  234  A    between atoms: _518  and  _520
REMARK  235  A    between atoms: _520  and  _521
REMARK  236  A    between atoms: _520  and  _523
REMARK  237  A    between atoms: _523  and  _524
REMARK  238  A    between atoms: _527  and  _529
REMARK  239  A    between atoms: _529  and  _530
REMARK  240  A    between atoms: _529  and  _532
REMARK  241  A    between atoms: _532  and  _533
REMARK  242  A    between atoms: _533  and  _534
REMARK  243  A    between atoms: _534  and  _535
REMARK  244  A    between atoms: _535  and  _536
REMARK  245  A    between atoms: _540  and  _542
REMARK  246  A    between atoms: _542  and  _543
REMARK  247  A    between atoms: _542  and  _545
REMARK  248  A    between atoms: _545  and  _546
REMARK  249  A    between atoms: _551  and  _553
REMARK  250  A    between atoms: _553  and  _554
REMARK  251  A    between atoms: _553  and  _556
REMARK  252  A    between atoms: _556  and  _557
REMARK  253  A    between atoms: _560  and  _562
REMARK  254  A    between atoms: _562  and  _563
REMARK  255  A    between atoms: _566  and  _568
REMARK  256  A    between atoms: _568  and  _569
REMARK  257  A    between atoms: _568  and  _571
REMARK  258  A    between atoms: _571  and  _572
REMARK  259  A    between atoms: _575  and  _577
REMARK  260  A    between atoms: _577  and  _578
REMARK  261  A    between atoms: _581  and  _583
REMARK  262  A    between atoms: _583  and  _584
REMARK  263  A    between atoms: _583  and  _586
REMARK  264  A    between atoms: _589  and  _591
REMARK  265  A    between atoms: _591  and  _592
REMARK  266  A    between atoms: _594  and  _596
REMARK  267  A    between atoms: _596  and  _597
REMARK  268  A    between atoms: _600  and  _602
REMARK  269  A    between atoms: _602  and  _603
REMARK  270  A    between atoms: _602  and  _605
REMARK  271  A    between atoms: _605  and  _606
REMARK                            x       y       z     vdW  Elec       q    Type
REMARK                         _______ _______ _______ _____ _____    ______ ____
ROOT
ATOM      1  O   HOH     1      -8.759  19.199 -21.649  0.00  0.00    +0.000 OA
ENDROOT
TORSDOF 0
REMARK  Name = ../refined-set-2016/2hf8/2hf8_pocket.pdb
REMARK  271 active torsions:
REMARK  status: ('A' for Active; 'I' for Inactive)
REMARK    1  A    between atoms: _1  and  _3
REMARK    2  A    between atoms: _3  and  _4
REMARK    3  A    between atoms: _3  and  _6
REMARK    4  A    between atoms: _6  and  _7
REMARK    5  A    between atoms: _13  and  _15
REMARK    6  A    between atoms: _15  and  _16
REMARK    7  A    between atoms: _15  and  _18
REMARK    8  A    between atoms: _18  and  _19
REMARK    9  A    between atoms: _19  and  _20
REMARK   10  A    between atoms: _22  and  _24
REMARK   11  A    between atoms: _24  and  _25
REMARK   12  A    between atoms: _27  and  _29
REMARK   13  A    between atoms: _29  and  _30
REMARK   14  A    between atoms: _33  and  _35
REMARK   15  A    between atoms: _35  and  _36
REMARK   16  A    between atoms: _35  and  _38
REMARK   17  A    between atoms: _38  and  _39
REMARK   18  A    between atoms: _42  and  _44
REMARK   19  A    between atoms: _44  and  _45
REMARK   20  A    between atoms: _47  and  _49
REMARK   21  A    between atoms: _49  and  _50
REMARK   22  A    between atoms: _49  and  _52
REMARK   23  A    between atoms: _52  and  _53
REMARK   24  A    between atoms: _55  and  _57
REMARK   25  A    between atoms: _57  and  _58
REMARK   26  A    between atoms: _60  and  _62
REMARK   27  A    between atoms: _62  and  _63
REMARK   28  A    between atoms: _62  and  _65
REMARK   29  A    between atoms: _65  and  _66
REMARK   30  A    between atoms: _66  and  _67
REMARK   31  A    between atoms: _67  and  _68
REMARK   32  A    between atoms: _68  and  _69
REMARK   33  A    between atoms: _73  and  _75
REMARK   34  A    between atoms: _75  and  _76
REMARK   35  A    between atoms: _75  and  _78
REMARK   36  A    between atoms: _78  and  _79
REMARK   37  A    between atoms: _82  and  _84
REMARK   38  A    between atoms: _84  and  _85
REMARK   39  A    between atoms: _84  and  _87
REMARK   40  A    between atoms: _87  and  _88
REMARK   41  A    between atoms: _91  and  _93
REMARK   42  A    between atoms: _93  and  _94
REMARK   43  A    between atoms: _93  and  _96
REMARK   44  A    between atoms: _96  and  _97
REMARK   45  A    between atoms: _100  and  _102
REMARK   46  A    between atoms: _102  and  _103
REMARK   47  A    between atoms: _102  and  _105
REMARK   48  A    between atoms: _105  and  _106
REMARK   49  A    between atoms: _109  and  _111
REMARK   50  A    between atoms: _111  and  _112
REMARK   51  A    between atoms: _111  and  _114
REMARK   52  A    between atoms: _114  and  _115
REMARK   53  A    between atoms: _115  and  _116
REMARK   54  A    between atoms: _119  and  _121
REMARK   55  A    between atoms: _121  and  _122
REMARK   56  A    between atoms: _121  and  _124
REMARK   57  A    between atoms: _124  and  _125
REMARK   58  A    between atoms: _125  and  _126
REMARK   59  A    between atoms: _126  and  _127
REMARK   60  A    between atoms: _127  and  _128
REMARK   61  A    between atoms: _132  and  _134
REMARK   62  A    between atoms: _134  and  _135
REMARK   63  A    between atoms: _137  and  _139
REMARK   64  A    between atoms: _139  and  _140
REMARK   65  A    between atoms: _139  and  _142
REMARK   66  A    between atoms: _142  and  _143
REMARK   67  A    between atoms: _146  and  _148
REMARK   68  A    between atoms: _148  and  _149
REMARK   69  A    between atoms: _148  and  _151
REMARK   70  A    between atoms: _154  and  _156
REMARK   71  A    between atoms: _156  and  _157
REMARK   72  A    between atoms: _156  and  _159
REMARK   73  A    between atoms: _159  and  _160
REMARK   74  A    between atoms: _163  and  _165
REMARK   75  A    between atoms: _165  and  _166
REMARK   76  A    between atoms: _165  and  _168
REMARK   77  A    between atoms: _168  and  _169
REMARK   78  A    between atoms: _175  and  _177
REMARK   79  A    between atoms: _177  and  _178
REMARK   80  A    between atoms: _177  and  _180
REMARK   81  A    between atoms: _180  and  _181
REMARK   82  A    between atoms: _181  and  _183
REMARK   83  A    between atoms: _183  and  MG_609
REMARK   84  A    between atoms: _184  and  _186
REMARK   85  A    between atoms: _186  and  _187
REMARK   86  A    between atoms: _186  and  _189
REMARK   87  A    between atoms: _189  and  _190
REMARK   88  A    between atoms: _190  and  _191
REMARK   89  A    between atoms: _191  and  _192
REMARK   90  A    between atoms: _201  and  _203
REMARK   91  A    between atoms: _203  and  _204
REMARK   92  A    between atoms: _203  and  _206
REMARK   93  A    between atoms: _206  and  _207
REMARK   94  A    between atoms: _207  and  _208
REMARK   95  A    between atoms: _210  and  _212
REMARK   96  A    between atoms: _212  and  _213
REMARK   97  A    between atoms: _212  and  _215
REMARK   98  A    between atoms: _215  and  _216
REMARK   99  A    between atoms: _216  and  _217
REMARK  100  A    between atoms: _220  and  _222
REMARK  101  A    between atoms: _222  and  _223
REMARK  102  A    between atoms: _222  and  _225
REMARK  103  A    between atoms: _225  and  _226
REMARK  104  A    between atoms: _231  and  _233
REMARK  105  A    between atoms: _233  and  _234
REMARK  106  A    between atoms: _233  and  _236
REMARK  107  A    between atoms: _239  and  _241
REMARK  108  A    between atoms: _241  and  _242
REMARK  109  A    between atoms: _244  and  _246
REMARK  110  A    between atoms: _246  and  _247
REMARK  111  A    between atoms: _246  and  _249
REMARK  112  A    between atoms: _249  and  _250
REMARK  113  A    between atoms: _255  and  _257
REMARK  114  A    between atoms: _257  and  _258
REMARK  115  A    between atoms: _257  and  _260
REMARK  116  A    between atoms: _263  and  _265
REMARK  117  A    between atoms: _265  and  _266
REMARK  118  A    between atoms: _265  and  _268
REMARK  119  A    between atoms: _268  and  _269
REMARK  120  A    between atoms: _272  and  _274
REMARK  121  A    between atoms: _274  and  _275
REMARK  122  A    between atoms: _274  and  _277
REMARK  123  A    between atoms: _277  and  _278
REMARK  124  A    between atoms: _280  and  _282
REMARK  125  A    between atoms: _282  and  _283
REMARK  126  A    between atoms: _282  and  _285
REMARK  127  A    between atoms: _285  and  _286
REMARK  128  A    between atoms: _289  and  _291
REMARK  129  A    between atoms: _291  and  _292
REMARK  130  A    between atoms: _291  and  _294
REMARK  131  A    between atoms: _294  and  _295
REMARK  132  A    between atoms: _298  and  _300
REMARK  133  A    between atoms: _300  and  _301
REMARK  134  A    between atoms: _300  and  _303
REMARK  135  A    between atoms: _303  and  _304
REMARK  136  A    between atoms: _304  and  _305
REMARK  137  A    between atoms: _308  and  _310
REMARK  138  A    between atoms: _310  and  _311
REMARK  139  A    between atoms: _310  and  _313
REMARK  140  A    between atoms: _313  and  _314
REMARK  141  A    between atoms: _317  and  _319
REMARK  142  A    between atoms: _319  and  _320
REMARK  143  A    between atoms: _319  and  _322
REMARK  144  A    between atoms: _322  and  _323
REMARK  145  A    between atoms: _328  and  _330
REMARK  146  A    between atoms: _330  and  _331
REMARK  147  A    between atoms: _330  and  _333
REMARK  148  A    between atoms: _333  and  _334
REMARK  149  A    between atoms: _334  and  _335
REMARK  150  A    between atoms: _335  and  _336
REMARK  151  A    between atoms: _336  and  _337
REMARK  152  A    between atoms: _341  and  _343
REMARK  153  A    between atoms: _343  and  _344
REMARK  154  A    between atoms: _343  and  _346
REMARK  155  A    between atoms: _346  and  _347
REMARK  156  A    between atoms: _350  and  _352
REMARK  157  A    between atoms: _352  and  _353
REMARK  158  A    between atoms: _352  and  _355
REMARK  159  A    between atoms: _355  and  _356
REMARK  160  A    between atoms: _359  and  _361
REMARK  161  A    between atoms: _361  and  _362
REMARK  162  A    between atoms: _361  and  _364
REMARK  163  A    between atoms: _364  and  _365
REMARK  164  A    between atoms: _368  and  _370
REMARK  165  A    between atoms: _370  and  _371
REMARK  166  A    between atoms: _374  and  _376
REMARK  167  A    between atoms: _376  and  _377
REMARK  168  A    between atoms: _376  and  _379
REMARK  169  A    between atoms: _379  and  _380
REMARK  170  A    between atoms: _383  and  _385
REMARK  171  A    between atoms: _385  and  _386
REMARK  172  A    between atoms: _385  and  _388
REMARK  173  A    between atoms: _388  and  _389
REMARK  174  A    between atoms: _391  and  _393
REMARK  175  A    between atoms: _393  and  _394
REMARK  176  A    between atoms: _393  and  _396
REMARK  177  A    between atoms: _396  and  _397
REMARK  178  A    between atoms: _400  and  _402
REMARK  179  A    between atoms: _402  and  _403
REMARK  180  A    between atoms: _402  and  _405
REMARK  181  A    between atoms: _405  and  _406
REMARK  182  A    between atoms: _406  and  _407
REMARK  183  A    between atoms: _407  and  _408
REMARK  184  A    between atoms: _408  and  _409
REMARK  185  A    between atoms: _413  and  _415
REMARK  186  A    between atoms: _415  and  _416
REMARK  187  A    between atoms: _415  and  _418
REMARK  188  A    between atoms: _418  and  _419
REMARK  189  A    between atoms: _422  and  _424
REMARK  190  A    between atoms: _424  and  _425
REMARK  191  A    between atoms: _424  and  _427
REMARK  192  A    between atoms: _427  and  _428
REMARK  193  A    between atoms: _428  and  _429
REMARK  194  A    between atoms: _431  and  _433
REMARK  195  A    between atoms: _433  and  _434
REMARK  196  A    between atoms: _433  and  _436
REMARK  197  A    between atoms: _436  and  _437
REMARK  198  A    between atoms: _437  and  _438
REMARK  199  A    between atoms: _441  and  _443
REMARK  200  A    between atoms: _443  and  _444
REMARK  201  A    between atoms: _443  and  _446
REMARK  202  A    between atoms: _446  and  _447
REMARK  203  A    between atoms: _450  and  _452
REMARK  204  A    between atoms: _452  and  _453
REMARK  205  A    between atoms: _452  and  _455
REMARK  206  A    between atoms: _455  and  _456
REMARK  207  A    between atoms: _458  and  _460
REMARK  208  A    between atoms: _460  and  _461
REMARK  209  A    between atoms: _460  and  _463
REMARK  210  A    between atoms: _463  and  _464
REMARK  211  A    between atoms: _467  and  _469
REMARK  212  A    between atoms: _469  and  _470
REMARK  213  A    between atoms: _469  and  _472
REMARK  214  A    between atoms: _472  and  _473
REMARK  215  A    between atoms: _476  and  _478
REMARK  216  A    between atoms: _478  and  _479
REMARK  217  A    between atoms: _478  and  _481
REMARK  218  A    between atoms: _481  and  _482
REMARK  219  A    between atoms: _482  and  _483
REMARK  220  A    between atoms: _486  and  _488
REMARK  221  A    between atoms: _488  and  _489
REMARK  222  A    between atoms: _491  and  _493
REMARK  223  A    between atoms: _493  and  _494
REMARK  224  A    between atoms: _493  and  _496
REMARK  225  A    between atoms: _496  and  _497
REMARK  226  A    between atoms: _500  and  _502
REMARK  227  A    between atoms: _502  and  _503
REMARK  228  A    between atoms: _502  and  _505
REMARK  229  A    between atoms: _505  and  _506
REMARK  230  A    between atoms: _509  and  _511
REMARK  231  A    between atoms: _511  and  _512
REMARK  232  A    between atoms: _511  and  _514
REMARK  233  A    between atoms: _514  and  _515
REMARK  234  A    between atoms: _518  and  _520
REMARK  235  A    between atoms: _520  and  _521
REMARK  236  A    between atoms: _520  and  _523
REMARK  237  A    between atoms: _523  and  _524
REMARK  238  A    between atoms: _527  and  _529
REMARK  239  A    between atoms: _529  and  _530
REMARK  240  A    between atoms: _529  and  _532
REMARK  241  A    between atoms: _532  and  _533
REMARK  242  A    between atoms: _533  and  _534
REMARK  243  A    between atoms: _534  and  _535
REMARK  244  A    between atoms: _535  and  _536
REMARK  245  A    between atoms: _540  and  _542
REMARK  246  A    between atoms: _542  and  _543
REMARK  247  A    between atoms: _542  and  _545
REMARK  248  A    between atoms: _545  and  _546
REMARK  249  A    between atoms: _551  and  _553
REMARK  250  A    between atoms: _553  and  _554
REMARK  251  A    between atoms: _553  and  _556
REMARK  252  A    between atoms: _556  and  _557
REMARK  253  A    between atoms: _560  and  _562
REMARK  254  A    between atoms: _562  and  _563
REMARK  255  A    between atoms: _566  and  _568
REMARK  256  A    between atoms: _568  and  _569
REMARK  257  A    between atoms: _568  and  _571
REMARK  258  A    between atoms: _571  and  _572
REMARK  259  A    between atoms: _575  and  _577
REMARK  260  A    between atoms: _577  and  _578
REMARK  261  A    between atoms: _581  and  _583
REMARK  262  A    between atoms: _583  and  _584
REMARK  263  A    between atoms: _583  and  _586
REMARK  264  A    between atoms: _589  and  _591
REMARK  265  A    between atoms: _591  and  _592
REMARK  266  A    between atoms: _594  and  _596
REMARK  267  A    between atoms: _596  and  _597
REMARK  268  A    between atoms: _600  and  _602
REMARK  269  A    between atoms: _602  and  _603
REMARK  270  A    between atoms: _602  and  _605
REMARK  271  A    between atoms: _605  and  _606
REMARK                            x       y       z     vdW  Elec       q    Type
REMARK                         _______ _______ _______ _____ _____    ______ ____
ROOT
ATOM      1  O   HOH     1      -8.575  14.165 -20.876  0.00  0.00    +0.000 OA
ENDROOT
TORSDOF 0
REMARK  Name = ../refined-set-2016/2hf8/2hf8_pocket.pdb
REMARK  271 active torsions:
REMARK  status: ('A' for Active; 'I' for Inactive)
REMARK    1  A    between atoms: _1  and  _3
REMARK    2  A    between atoms: _3  and  _4
REMARK    3  A    between atoms: _3  and  _6
REMARK    4  A    between atoms: _6  and  _7
REMARK    5  A    between atoms: _13  and  _15
REMARK    6  A    between atoms: _15  and  _16
REMARK    7  A    between atoms: _15  and  _18
REMARK    8  A    between atoms: _18  and  _19
REMARK    9  A    between atoms: _19  and  _20
REMARK   10  A    between atoms: _22  and  _24
REMARK   11  A    between atoms: _24  and  _25
REMARK   12  A    between atoms: _27  and  _29
REMARK   13  A    between atoms: _29  and  _30
REMARK   14  A    between atoms: _33  and  _35
REMARK   15  A    between atoms: _35  and  _36
REMARK   16  A    between atoms: _35  and  _38
REMARK   17  A    between atoms: _38  and  _39
REMARK   18  A    between atoms: _42  and  _44
REMARK   19  A    between atoms: _44  and  _45
REMARK   20  A    between atoms: _47  and  _49
REMARK   21  A    between atoms: _49  and  _50
REMARK   22  A    between atoms: _49  and  _52
REMARK   23  A    between atoms: _52  and  _53
REMARK   24  A    between atoms: _55  and  _57
REMARK   25  A    between atoms: _57  and  _58
REMARK   26  A    between atoms: _60  and  _62
REMARK   27  A    between atoms: _62  and  _63
REMARK   28  A    between atoms: _62  and  _65
REMARK   29  A    between atoms: _65  and  _66
REMARK   30  A    between atoms: _66  and  _67
REMARK   31  A    between atoms: _67  and  _68
REMARK   32  A    between atoms: _68  and  _69
REMARK   33  A    between atoms: _73  and  _75
REMARK   34  A    between atoms: _75  and  _76
REMARK   35  A    between atoms: _75  and  _78
REMARK   36  A    between atoms: _78  and  _79
REMARK   37  A    between atoms: _82  and  _84
REMARK   38  A    between atoms: _84  and  _85
REMARK   39  A    between atoms: _84  and  _87
REMARK   40  A    between atoms: _87  and  _88
REMARK   41  A    between atoms: _91  and  _93
REMARK   42  A    between atoms: _93  and  _94
REMARK   43  A    between atoms: _93  and  _96
REMARK   44  A    between atoms: _96  and  _97
REMARK   45  A    between atoms: _100  and  _102
REMARK   46  A    between atoms: _102  and  _103
REMARK   47  A    between atoms: _102  and  _105
REMARK   48  A    between atoms: _105  and  _106
REMARK   49  A    between atoms: _109  and  _111
REMARK   50  A    between atoms: _111  and  _112
REMARK   51  A    between atoms: _111  and  _114
REMARK   52  A    between atoms: _114  and  _115
REMARK   53  A    between atoms: _115  and  _116
REMARK   54  A    between atoms: _119  and  _121
REMARK   55  A    between atoms: _121  and  _122
REMARK   56  A    between atoms: _121  and  _124
REMARK   57  A    between atoms: _124  and  _125
REMARK   58  A    between atoms: _125  and  _126
REMARK   59  A    between atoms: _126  and  _127
REMARK   60  A    between atoms: _127  and  _128
REMARK   61  A    between atoms: _132  and  _134
REMARK   62  A    between atoms: _134  and  _135
REMARK   63  A    between atoms: _137  and  _139
REMARK   64  A    between atoms: _139  and  _140
REMARK   65  A    between atoms: _139  and  _142
REMARK   66  A    between atoms: _142  and  _143
REMARK   67  A    between atoms: _146  and  _148
REMARK   68  A    between atoms: _148  and  _149
REMARK   69  A    between atoms: _148  and  _151
REMARK   70  A    between atoms: _154  and  _156
REMARK   71  A    between atoms: _156  and  _157
REMARK   72  A    between atoms: _156  and  _159
REMARK   73  A    between atoms: _159  and  _160
REMARK   74  A    between atoms: _163  and  _165
REMARK   75  A    between atoms: _165  and  _166
REMARK   76  A    between atoms: _165  and  _168
REMARK   77  A    between atoms: _168  and  _169
REMARK   78  A    between atoms: _175  and  _177
REMARK   79  A    between atoms: _177  and  _178
REMARK   80  A    between atoms: _177  and  _180
REMARK   81  A    between atoms: _180  and  _181
REMARK   82  A    between atoms: _181  and  _183
REMARK   83  A    between atoms: _183  and  MG_609
REMARK   84  A    between atoms: _184  and  _186
REMARK   85  A    between atoms: _186  and  _187
REMARK   86  A    between atoms: _186  and  _189
REMARK   87  A    between atoms: _189  and  _190
REMARK   88  A    between atoms: _190  and  _191
REMARK   89  A    between atoms: _191  and  _192
REMARK   90  A    between atoms: _201  and  _203
REMARK   91  A    between atoms: _203  and  _204
REMARK   92  A    between atoms: _203  and  _206
REMARK   93  A    between atoms: _206  and  _207
REMARK   94  A    between atoms: _207  and  _208
REMARK   95  A    between atoms: _210  and  _212
REMARK   96  A    between atoms: _212  and  _213
REMARK   97  A    between atoms: _212  and  _215
REMARK   98  A    between atoms: _215  and  _216
REMARK   99  A    between atoms: _216  and  _217
REMARK  100  A    between atoms: _220  and  _222
REMARK  101  A    between atoms: _222  and  _223
REMARK  102  A    between atoms: _222  and  _225
REMARK  103  A    between atoms: _225  and  _226
REMARK  104  A    between atoms: _231  and  _233
REMARK  105  A    between atoms: _233  and  _234
REMARK  106  A    between atoms: _233  and  _236
REMARK  107  A    between atoms: _239  and  _241
REMARK  108  A    between atoms: _241  and  _242
REMARK  109  A    between atoms: _244  and  _246
REMARK  110  A    between atoms: _246  and  _247
REMARK  111  A    between atoms: _246  and  _249
REMARK  112  A    between atoms: _249  and  _250
REMARK  113  A    between atoms: _255  and  _257
REMARK  114  A    between atoms: _257  and  _258
REMARK  115  A    between atoms: _257  and  _260
REMARK  116  A    between atoms: _263  and  _265
REMARK  117  A    between atoms: _265  and  _266
REMARK  118  A    between atoms: _265  and  _268
REMARK  119  A    between atoms: _268  and  _269
REMARK  120  A    between atoms: _272  and  _274
REMARK  121  A    between atoms: _274  and  _275
REMARK  122  A    between atoms: _274  and  _277
REMARK  123  A    between atoms: _277  and  _278
REMARK  124  A    between atoms: _280  and  _282
REMARK  125  A    between atoms: _282  and  _283
REMARK  126  A    between atoms: _282  and  _285
REMARK  127  A    between atoms: _285  and  _286
REMARK  128  A    between atoms: _289  and  _291
REMARK  129  A    between atoms: _291  and  _292
REMARK  130  A    between atoms: _291  and  _294
REMARK  131  A    between atoms: _294  and  _295
REMARK  132  A    between atoms: _298  and  _300
REMARK  133  A    between atoms: _300  and  _301
REMARK  134  A    between atoms: _300  and  _303
REMARK  135  A    between atoms: _303  and  _304
REMARK  136  A    between atoms: _304  and  _305
REMARK  137  A    between atoms: _308  and  _310
REMARK  138  A    between atoms: _310  and  _311
REMARK  139  A    between atoms: _310  and  _313
REMARK  140  A    between atoms: _313  and  _314
REMARK  141  A    between atoms: _317  and  _319
REMARK  142  A    between atoms: _319  and  _320
REMARK  143  A    between atoms: _319  and  _322
REMARK  144  A    between atoms: _322  and  _323
REMARK  145  A    between atoms: _328  and  _330
REMARK  146  A    between atoms: _330  and  _331
REMARK  147  A    between atoms: _330  and  _333
REMARK  148  A    between atoms: _333  and  _334
REMARK  149  A    between atoms: _334  and  _335
REMARK  150  A    between atoms: _335  and  _336
REMARK  151  A    between atoms: _336  and  _337
REMARK  152  A    between atoms: _341  and  _343
REMARK  153  A    between atoms: _343  and  _344
REMARK  154  A    between atoms: _343  and  _346
REMARK  155  A    between atoms: _346  and  _347
REMARK  156  A    between atoms: _350  and  _352
REMARK  157  A    between atoms: _352  and  _353
REMARK  158  A    between atoms: _352  and  _355
REMARK  159  A    between atoms: _355  and  _356
REMARK  160  A    between atoms: _359  and  _361
REMARK  161  A    between atoms: _361  and  _362
REMARK  162  A    between atoms: _361  and  _364
REMARK  163  A    between atoms: _364  and  _365
REMARK  164  A    between atoms: _368  and  _370
REMARK  165  A    between atoms: _370  and  _371
REMARK  166  A    between atoms: _374  and  _376
REMARK  167  A    between atoms: _376  and  _377
REMARK  168  A    between atoms: _376  and  _379
REMARK  169  A    between atoms: _379  and  _380
REMARK  170  A    between atoms: _383  and  _385
REMARK  171  A    between atoms: _385  and  _386
REMARK  172  A    between atoms: _385  and  _388
REMARK  173  A    between atoms: _388  and  _389
REMARK  174  A    between atoms: _391  and  _393
REMARK  175  A    between atoms: _393  and  _394
REMARK  176  A    between atoms: _393  and  _396
REMARK  177  A    between atoms: _396  and  _397
REMARK  178  A    between atoms: _400  and  _402
REMARK  179  A    between atoms: _402  and  _403
REMARK  180  A    between atoms: _402  and  _405
REMARK  181  A    between atoms: _405  and  _406
REMARK  182  A    between atoms: _406  and  _407
REMARK  183  A    between atoms: _407  and  _408
REMARK  184  A    between atoms: _408  and  _409
REMARK  185  A    between atoms: _413  and  _415
REMARK  186  A    between atoms: _415  and  _416
REMARK  187  A    between atoms: _415  and  _418
REMARK  188  A    between atoms: _418  and  _419
REMARK  189  A    between atoms: _422  and  _424
REMARK  190  A    between atoms: _424  and  _425
REMARK  191  A    between atoms: _424  and  _427
REMARK  192  A    between atoms: _427  and  _428
REMARK  193  A    between atoms: _428  and  _429
REMARK  194  A    between atoms: _431  and  _433
REMARK  195  A    between atoms: _433  and  _434
REMARK  196  A    between atoms: _433  and  _436
REMARK  197  A    between atoms: _436  and  _437
REMARK  198  A    between atoms: _437  and  _438
REMARK  199  A    between atoms: _441  and  _443
REMARK  200  A    between atoms: _443  and  _444
REMARK  201  A    between atoms: _443  and  _446
REMARK  202  A    between atoms: _446  and  _447
REMARK  203  A    between atoms: _450  and  _452
REMARK  204  A    between atoms: _452  and  _453
REMARK  205  A    between atoms: _452  and  _455
REMARK  206  A    between atoms: _455  and  _456
REMARK  207  A    between atoms: _458  and  _460
REMARK  208  A    between atoms: _460  and  _461
REMARK  209  A    between atoms: _460  and  _463
REMARK  210  A    between atoms: _463  and  _464
REMARK  211  A    between atoms: _467  and  _469
REMARK  212  A    between atoms: _469  and  _470
REMARK  213  A    between atoms: _469  and  _472
REMARK  214  A    between atoms: _472  and  _473
REMARK  215  A    between atoms: _476  and  _478
REMARK  216  A    between atoms: _478  and  _479
REMARK  217  A    between atoms: _478  and  _481
REMARK  218  A    between atoms: _481  and  _482
REMARK  219  A    between atoms: _482  and  _483
REMARK  220  A    between atoms: _486  and  _488
REMARK  221  A    between atoms: _488  and  _489
REMARK  222  A    between atoms: _491  and  _493
REMARK  223  A    between atoms: _493  and  _494
REMARK  224  A    between atoms: _493  and  _496
REMARK  225  A    between atoms: _496  and  _497
REMARK  226  A    between atoms: _500  and  _502
REMARK  227  A    between atoms: _502  and  _503
REMARK  228  A    between atoms: _502  and  _505
REMARK  229  A    between atoms: _505  and  _506
REMARK  230  A    between atoms: _509  and  _511
REMARK  231  A    between atoms: _511  and  _512
REMARK  232  A    between atoms: _511  and  _514
REMARK  233  A    between atoms: _514  and  _515
REMARK  234  A    between atoms: _518  and  _520
REMARK  235  A    between atoms: _520  and  _521
REMARK  236  A    between atoms: _520  and  _523
REMARK  237  A    between atoms: _523  and  _524
REMARK  238  A    between atoms: _527  and  _529
REMARK  239  A    between atoms: _529  and  _530
REMARK  240  A    between atoms: _529  and  _532
REMARK  241  A    between atoms: _532  and  _533
REMARK  242  A    between atoms: _533  and  _534
REMARK  243  A    between atoms: _534  and  _535
REMARK  244  A    between atoms: _535  and  _536
REMARK  245  A    between atoms: _540  and  _542
REMARK  246  A    between atoms: _542  and  _543
REMARK  247  A    between atoms: _542  and  _545
REMARK  248  A    between atoms: _545  and  _546
REMARK  249  A    between atoms: _551  and  _553
REMARK  250  A    between atoms: _553  and  _554
REMARK  251  A    between atoms: _553  and  _556
REMARK  252  A    between atoms: _556  and  _557
REMARK  253  A    between atoms: _560  and  _562
REMARK  254  A    between atoms: _562  and  _563
REMARK  255  A    between atoms: _566  and  _568
REMARK  256  A    between atoms: _568  and  _569
REMARK  257  A    between atoms: _568  and  _571
REMARK  258  A    between atoms: _571  and  _572
REMARK  259  A    between atoms: _575  and  _577
REMARK  260  A    between atoms: _577  and  _578
REMARK  261  A    between atoms: _581  and  _583
REMARK  262  A    between atoms: _583  and  _584
REMARK  263  A    between atoms: _583  and  _586
REMARK  264  A    between atoms: _589  and  _591
REMARK  265  A    between atoms: _591  and  _592
REMARK  266  A    between atoms: _594  and  _596
REMARK  267  A    between atoms: _596  and  _597
REMARK  268  A    between atoms: _600  and  _602
REMARK  269  A    between atoms: _602  and  _603
REMARK  270  A    between atoms: _602  and  _605
REMARK  271  A    between atoms: _605  and  _606
REMARK                            x       y       z     vdW  Elec       q    Type
REMARK                         _______ _______ _______ _____ _____    ______ ____
ROOT
ATOM      1  O   HOH     1     -10.990  16.624 -22.982  0.00  0.00    +0.000 OA
ENDROOT
TORSDOF 0
REMARK  Name = ../refined-set-2016/2hf8/2hf8_pocket.pdb
REMARK  271 active torsions:
REMARK  status: ('A' for Active; 'I' for Inactive)
REMARK    1  A    between atoms: _1  and  _3
REMARK    2  A    between atoms: _3  and  _4
REMARK    3  A    between atoms: _3  and  _6
REMARK    4  A    between atoms: _6  and  _7
REMARK    5  A    between atoms: _13  and  _15
REMARK    6  A    between atoms: _15  and  _16
REMARK    7  A    between atoms: _15  and  _18
REMARK    8  A    between atoms: _18  and  _19
REMARK    9  A    between atoms: _19  and  _20
REMARK   10  A    between atoms: _22  and  _24
REMARK   11  A    between atoms: _24  and  _25
REMARK   12  A    between atoms: _27  and  _29
REMARK   13  A    between atoms: _29  and  _30
REMARK   14  A    between atoms: _33  and  _35
REMARK   15  A    between atoms: _35  and  _36
REMARK   16  A    between atoms: _35  and  _38
REMARK   17  A    between atoms: _38  and  _39
REMARK   18  A    between atoms: _42  and  _44
REMARK   19  A    between atoms: _44  and  _45
REMARK   20  A    between atoms: _47  and  _49
REMARK   21  A    between atoms: _49  and  _50
REMARK   22  A    between atoms: _49  and  _52
REMARK   23  A    between atoms: _52  and  _53
REMARK   24  A    between atoms: _55  and  _57
REMARK   25  A    between atoms: _57  and  _58
REMARK   26  A    between atoms: _60  and  _62
REMARK   27  A    between atoms: _62  and  _63
REMARK   28  A    between atoms: _62  and  _65
REMARK   29  A    between atoms: _65  and  _66
REMARK   30  A    between atoms: _66  and  _67
REMARK   31  A    between atoms: _67  and  _68
REMARK   32  A    between atoms: _68  and  _69
REMARK   33  A    between atoms: _73  and  _75
REMARK   34  A    between atoms: _75  and  _76
REMARK   35  A    between atoms: _75  and  _78
REMARK   36  A    between atoms: _78  and  _79
REMARK   37  A    between atoms: _82  and  _84
REMARK   38  A    between atoms: _84  and  _85
REMARK   39  A    between atoms: _84  and  _87
REMARK   40  A    between atoms: _87  and  _88
REMARK   41  A    between atoms: _91  and  _93
REMARK   42  A    between atoms: _93  and  _94
REMARK   43  A    between atoms: _93  and  _96
REMARK   44  A    between atoms: _96  and  _97
REMARK   45  A    between atoms: _100  and  _102
REMARK   46  A    between atoms: _102  and  _103
REMARK   47  A    between atoms: _102  and  _105
REMARK   48  A    between atoms: _105  and  _106
REMARK   49  A    between atoms: _109  and  _111
REMARK   50  A    between atoms: _111  and  _112
REMARK   51  A    between atoms: _111  and  _114
REMARK   52  A    between atoms: _114  and  _115
REMARK   53  A    between atoms: _115  and  _116
REMARK   54  A    between atoms: _119  and  _121
REMARK   55  A    between atoms: _121  and  _122
REMARK   56  A    between atoms: _121  and  _124
REMARK   57  A    between atoms: _124  and  _125
REMARK   58  A    between atoms: _125  and  _126
REMARK   59  A    between atoms: _126  and  _127
REMARK   60  A    between atoms: _127  and  _128
REMARK   61  A    between atoms: _132  and  _134
REMARK   62  A    between atoms: _134  and  _135
REMARK   63  A    between atoms: _137  and  _139
REMARK   64  A    between atoms: _139  and  _140
REMARK   65  A    between atoms: _139  and  _142
REMARK   66  A    between atoms: _142  and  _143
REMARK   67  A    between atoms: _146  and  _148
REMARK   68  A    between atoms: _148  and  _149
REMARK   69  A    between atoms: _148  and  _151
REMARK   70  A    between atoms: _154  and  _156
REMARK   71  A    between atoms: _156  and  _157
REMARK   72  A    between atoms: _156  and  _159
REMARK   73  A    between atoms: _159  and  _160
REMARK   74  A    between atoms: _163  and  _165
REMARK   75  A    between atoms: _165  and  _166
REMARK   76  A    between atoms: _165  and  _168
REMARK   77  A    between atoms: _168  and  _169
REMARK   78  A    between atoms: _175  and  _177
REMARK   79  A    between atoms: _177  and  _178
REMARK   80  A    between atoms: _177  and  _180
REMARK   81  A    between atoms: _180  and  _181
REMARK   82  A    between atoms: _181  and  _183
REMARK   83  A    between atoms: _183  and  MG_609
REMARK   84  A    between atoms: _184  and  _186
REMARK   85  A    between atoms: _186  and  _187
REMARK   86  A    between atoms: _186  and  _189
REMARK   87  A    between atoms: _189  and  _190
REMARK   88  A    between atoms: _190  and  _191
REMARK   89  A    between atoms: _191  and  _192
REMARK   90  A    between atoms: _201  and  _203
REMARK   91  A    between atoms: _203  and  _204
REMARK   92  A    between atoms: _203  and  _206
REMARK   93  A    between atoms: _206  and  _207
REMARK   94  A    between atoms: _207  and  _208
REMARK   95  A    between atoms: _210  and  _212
REMARK   96  A    between atoms: _212  and  _213
REMARK   97  A    between atoms: _212  and  _215
REMARK   98  A    between atoms: _215  and  _216
REMARK   99  A    between atoms: _216  and  _217
REMARK  100  A    between atoms: _220  and  _222
REMARK  101  A    between atoms: _222  and  _223
REMARK  102  A    between atoms: _222  and  _225
REMARK  103  A    between atoms: _225  and  _226
REMARK  104  A    between atoms: _231  and  _233
REMARK  105  A    between atoms: _233  and  _234
REMARK  106  A    between atoms: _233  and  _236
REMARK  107  A    between atoms: _239  and  _241
REMARK  108  A    between atoms: _241  and  _242
REMARK  109  A    between atoms: _244  and  _246
REMARK  110  A    between atoms: _246  and  _247
REMARK  111  A    between atoms: _246  and  _249
REMARK  112  A    between atoms: _249  and  _250
REMARK  113  A    between atoms: _255  and  _257
REMARK  114  A    between atoms: _257  and  _258
REMARK  115  A    between atoms: _257  and  _260
REMARK  116  A    between atoms: _263  and  _265
REMARK  117  A    between atoms: _265  and  _266
REMARK  118  A    between atoms: _265  and  _268
REMARK  119  A    between atoms: _268  and  _269
REMARK  120  A    between atoms: _272  and  _274
REMARK  121  A    between atoms: _274  and  _275
REMARK  122  A    between atoms: _274  and  _277
REMARK  123  A    between atoms: _277  and  _278
REMARK  124  A    between atoms: _280  and  _282
REMARK  125  A    between atoms: _282  and  _283
REMARK  126  A    between atoms: _282  and  _285
REMARK  127  A    between atoms: _285  and  _286
REMARK  128  A    between atoms: _289  and  _291
REMARK  129  A    between atoms: _291  and  _292
REMARK  130  A    between atoms: _291  and  _294
REMARK  131  A    between atoms: _294  and  _295
REMARK  132  A    between atoms: _298  and  _300
REMARK  133  A    between atoms: _300  and  _301
REMARK  134  A    between atoms: _300  and  _303
REMARK  135  A    between atoms: _303  and  _304
REMARK  136  A    between atoms: _304  and  _305
REMARK  137  A    between atoms: _308  and  _310
REMARK  138  A    between atoms: _310  and  _311
REMARK  139  A    between atoms: _310  and  _313
REMARK  140  A    between atoms: _313  and  _314
REMARK  141  A    between atoms: _317  and  _319
REMARK  142  A    between atoms: _319  and  _320
REMARK  143  A    between atoms: _319  and  _322
REMARK  144  A    between atoms: _322  and  _323
REMARK  145  A    between atoms: _328  and  _330
REMARK  146  A    between atoms: _330  and  _331
REMARK  147  A    between atoms: _330  and  _333
REMARK  148  A    between atoms: _333  and  _334
REMARK  149  A    between atoms: _334  and  _335
REMARK  150  A    between atoms: _335  and  _336
REMARK  151  A    between atoms: _336  and  _337
REMARK  152  A    between atoms: _341  and  _343
REMARK  153  A    between atoms: _343  and  _344
REMARK  154  A    between atoms: _343  and  _346
REMARK  155  A    between atoms: _346  and  _347
REMARK  156  A    between atoms: _350  and  _352
REMARK  157  A    between atoms: _352  and  _353
REMARK  158  A    between atoms: _352  and  _355
REMARK  159  A    between atoms: _355  and  _356
REMARK  160  A    between atoms: _359  and  _361
REMARK  161  A    between atoms: _361  and  _362
REMARK  162  A    between atoms: _361  and  _364
REMARK  163  A    between atoms: _364  and  _365
REMARK  164  A    between atoms: _368  and  _370
REMARK  165  A    between atoms: _370  and  _371
REMARK  166  A    between atoms: _374  and  _376
REMARK  167  A    between atoms: _376  and  _377
REMARK  168  A    between atoms: _376  and  _379
REMARK  169  A    between atoms: _379  and  _380
REMARK  170  A    between atoms: _383  and  _385
REMARK  171  A    between atoms: _385  and  _386
REMARK  172  A    between atoms: _385  and  _388
REMARK  173  A    between atoms: _388  and  _389
REMARK  174  A    between atoms: _391  and  _393
REMARK  175  A    between atoms: _393  and  _394
REMARK  176  A    between atoms: _393  and  _396
REMARK  177  A    between atoms: _396  and  _397
REMARK  178  A    between atoms: _400  and  _402
REMARK  179  A    between atoms: _402  and  _403
REMARK  180  A    between atoms: _402  and  _405
REMARK  181  A    between atoms: _405  and  _406
REMARK  182  A    between atoms: _406  and  _407
REMARK  183  A    between atoms: _407  and  _408
REMARK  184  A    between atoms: _408  and  _409
REMARK  185  A    between atoms: _413  and  _415
REMARK  186  A    between atoms: _415  and  _416
REMARK  187  A    between atoms: _415  and  _418
REMARK  188  A    between atoms: _418  and  _419
REMARK  189  A    between atoms: _422  and  _424
REMARK  190  A    between atoms: _424  and  _425
REMARK  191  A    between atoms: _424  and  _427
REMARK  192  A    between atoms: _427  and  _428
REMARK  193  A    between atoms: _428  and  _429
REMARK  194  A    between atoms: _431  and  _433
REMARK  195  A    between atoms: _433  and  _434
REMARK  196  A    between atoms: _433  and  _436
REMARK  197  A    between atoms: _436  and  _437
REMARK  198  A    between atoms: _437  and  _438
REMARK  199  A    between atoms: _441  and  _443
REMARK  200  A    between atoms: _443  and  _444
REMARK  201  A    between atoms: _443  and  _446
REMARK  202  A    between atoms: _446  and  _447
REMARK  203  A    between atoms: _450  and  _452
REMARK  204  A    between atoms: _452  and  _453
REMARK  205  A    between atoms: _452  and  _455
REMARK  206  A    between atoms: _455  and  _456
REMARK  207  A    between atoms: _458  and  _460
REMARK  208  A    between atoms: _460  and  _461
REMARK  209  A    between atoms: _460  and  _463
REMARK  210  A    between atoms: _463  and  _464
REMARK  211  A    between atoms: _467  and  _469
REMARK  212  A    between atoms: _469  and  _470
REMARK  213  A    between atoms: _469  and  _472
REMARK  214  A    between atoms: _472  and  _473
REMARK  215  A    between atoms: _476  and  _478
REMARK  216  A    between atoms: _478  and  _479
REMARK  217  A    between atoms: _478  and  _481
REMARK  218  A    between atoms: _481  and  _482
REMARK  219  A    between atoms: _482  and  _483
REMARK  220  A    between atoms: _486  and  _488
REMARK  221  A    between atoms: _488  and  _489
REMARK  222  A    between atoms: _491  and  _493
REMARK  223  A    between atoms: _493  and  _494
REMARK  224  A    between atoms: _493  and  _496
REMARK  225  A    between atoms: _496  and  _497
REMARK  226  A    between atoms: _500  and  _502
REMARK  227  A    between atoms: _502  and  _503
REMARK  228  A    between atoms: _502  and  _505
REMARK  229  A    between atoms: _505  and  _506
REMARK  230  A    between atoms: _509  and  _511
REMARK  231  A    between atoms: _511  and  _512
REMARK  232  A    between atoms: _511  and  _514
REMARK  233  A    between atoms: _514  and  _515
REMARK  234  A    between atoms: _518  and  _520
REMARK  235  A    between atoms: _520  and  _521
REMARK  236  A    between atoms: _520  and  _523
REMARK  237  A    between atoms: _523  and  _524
REMARK  238  A    between atoms: _527  and  _529
REMARK  239  A    between atoms: _529  and  _530
REMARK  240  A    between atoms: _529  and  _532
REMARK  241  A    between atoms: _532  and  _533
REMARK  242  A    between atoms: _533  and  _534
REMARK  243  A    between atoms: _534  and  _535
REMARK  244  A    between atoms: _535  and  _536
REMARK  245  A    between atoms: _540  and  _542
REMARK  246  A    between atoms: _542  and  _543
REMARK  247  A    between atoms: _542  and  _545
REMARK  248  A    between atoms: _545  and  _546
REMARK  249  A    between atoms: _551  and  _553
REMARK  250  A    between atoms: _553  and  _554
REMARK  251  A    between atoms: _553  and  _556
REMARK  252  A    between atoms: _556  and  _557
REMARK  253  A    between atoms: _560  and  _562
REMARK  254  A    between atoms: _562  and  _563
REMARK  255  A    between atoms: _566  and  _568
REMARK  256  A    between atoms: _568  and  _569
REMARK  257  A    between atoms: _568  and  _571
REMARK  258  A    between atoms: _571  and  _572
REMARK  259  A    between atoms: _575  and  _577
REMARK  260  A    between atoms: _577  and  _578
REMARK  261  A    between atoms: _581  and  _583
REMARK  262  A    between atoms: _583  and  _584
REMARK  263  A    between atoms: _583  and  _586
REMARK  264  A    between atoms: _589  and  _591
REMARK  265  A    between atoms: _591  and  _592
REMARK  266  A    between atoms: _594  and  _596
REMARK  267  A    between atoms: _596  and  _597
REMARK  268  A    between atoms: _600  and  _602
REMARK  269  A    between atoms: _602  and  _603
REMARK  270  A    between atoms: _602  and  _605
REMARK  271  A    between atoms: _605  and  _606
REMARK                            x       y       z     vdW  Elec       q    Type
REMARK                         _______ _______ _______ _____ _____    ______ ____
ROOT
ATOM      1  O   HOH     1      -0.679  22.266 -23.246  0.00  0.00    +0.000 OA
ENDROOT
TORSDOF 0
REMARK  Name = ../refined-set-2016/2hf8/2hf8_pocket.pdb
REMARK  271 active torsions:
REMARK  status: ('A' for Active; 'I' for Inactive)
REMARK    1  A    between atoms: _1  and  _3
REMARK    2  A    between atoms: _3  and  _4
REMARK    3  A    between atoms: _3  and  _6
REMARK    4  A    between atoms: _6  and  _7
REMARK    5  A    between atoms: _13  and  _15
REMARK    6  A    between atoms: _15  and  _16
REMARK    7  A    between atoms: _15  and  _18
REMARK    8  A    between atoms: _18  and  _19
REMARK    9  A    between atoms: _19  and  _20
REMARK   10  A    between atoms: _22  and  _24
REMARK   11  A    between atoms: _24  and  _25
REMARK   12  A    between atoms: _27  and  _29
REMARK   13  A    between atoms: _29  and  _30
REMARK   14  A    between atoms: _33  and  _35
REMARK   15  A    between atoms: _35  and  _36
REMARK   16  A    between atoms: _35  and  _38
REMARK   17  A    between atoms: _38  and  _39
REMARK   18  A    between atoms: _42  and  _44
REMARK   19  A    between atoms: _44  and  _45
REMARK   20  A    between atoms: _47  and  _49
REMARK   21  A    between atoms: _49  and  _50
REMARK   22  A    between atoms: _49  and  _52
REMARK   23  A    between atoms: _52  and  _53
REMARK   24  A    between atoms: _55  and  _57
REMARK   25  A    between atoms: _57  and  _58
REMARK   26  A    between atoms: _60  and  _62
REMARK   27  A    between atoms: _62  and  _63
REMARK   28  A    between atoms: _62  and  _65
REMARK   29  A    between atoms: _65  and  _66
REMARK   30  A    between atoms: _66  and  _67
REMARK   31  A    between atoms: _67  and  _68
REMARK   32  A    between atoms: _68  and  _69
REMARK   33  A    between atoms: _73  and  _75
REMARK   34  A    between atoms: _75  and  _76
REMARK   35  A    between atoms: _75  and  _78
REMARK   36  A    between atoms: _78  and  _79
REMARK   37  A    between atoms: _82  and  _84
REMARK   38  A    between atoms: _84  and  _85
REMARK   39  A    between atoms: _84  and  _87
REMARK   40  A    between atoms: _87  and  _88
REMARK   41  A    between atoms: _91  and  _93
REMARK   42  A    between atoms: _93  and  _94
REMARK   43  A    between atoms: _93  and  _96
REMARK   44  A    between atoms: _96  and  _97
REMARK   45  A    between atoms: _100  and  _102
REMARK   46  A    between atoms: _102  and  _103
REMARK   47  A    between atoms: _102  and  _105
REMARK   48  A    between atoms: _105  and  _106
REMARK   49  A    between atoms: _109  and  _111
REMARK   50  A    between atoms: _111  and  _112
REMARK   51  A    between atoms: _111  and  _114
REMARK   52  A    between atoms: _114  and  _115
REMARK   53  A    between atoms: _115  and  _116
REMARK   54  A    between atoms: _119  and  _121
REMARK   55  A    between atoms: _121  and  _122
REMARK   56  A    between atoms: _121  and  _124
REMARK   57  A    between atoms: _124  and  _125
REMARK   58  A    between atoms: _125  and  _126
REMARK   59  A    between atoms: _126  and  _127
REMARK   60  A    between atoms: _127  and  _128
REMARK   61  A    between atoms: _132  and  _134
REMARK   62  A    between atoms: _134  and  _135
REMARK   63  A    between atoms: _137  and  _139
REMARK   64  A    between atoms: _139  and  _140
REMARK   65  A    between atoms: _139  and  _142
REMARK   66  A    between atoms: _142  and  _143
REMARK   67  A    between atoms: _146  and  _148
REMARK   68  A    between atoms: _148  and  _149
REMARK   69  A    between atoms: _148  and  _151
REMARK   70  A    between atoms: _154  and  _156
REMARK   71  A    between atoms: _156  and  _157
REMARK   72  A    between atoms: _156  and  _159
REMARK   73  A    between atoms: _159  and  _160
REMARK   74  A    between atoms: _163  and  _165
REMARK   75  A    between atoms: _165  and  _166
REMARK   76  A    between atoms: _165  and  _168
REMARK   77  A    between atoms: _168  and  _169
REMARK   78  A    between atoms: _175  and  _177
REMARK   79  A    between atoms: _177  and  _178
REMARK   80  A    between atoms: _177  and  _180
REMARK   81  A    between atoms: _180  and  _181
REMARK   82  A    between atoms: _181  and  _183
REMARK   83  A    between atoms: _183  and  MG_609
REMARK   84  A    between atoms: _184  and  _186
REMARK   85  A    between atoms: _186  and  _187
REMARK   86  A    between atoms: _186  and  _189
REMARK   87  A    between atoms: _189  and  _190
REMARK   88  A    between atoms: _190  and  _191
REMARK   89  A    between atoms: _191  and  _192
REMARK   90  A    between atoms: _201  and  _203
REMARK   91  A    between atoms: _203  and  _204
REMARK   92  A    between atoms: _203  and  _206
REMARK   93  A    between atoms: _206  and  _207
REMARK   94  A    between atoms: _207  and  _208
REMARK   95  A    between atoms: _210  and  _212
REMARK   96  A    between atoms: _212  and  _213
REMARK   97  A    between atoms: _212  and  _215
REMARK   98  A    between atoms: _215  and  _216
REMARK   99  A    between atoms: _216  and  _217
REMARK  100  A    between atoms: _220  and  _222
REMARK  101  A    between atoms: _222  and  _223
REMARK  102  A    between atoms: _222  and  _225
REMARK  103  A    between atoms: _225  and  _226
REMARK  104  A    between atoms: _231  and  _233
REMARK  105  A    between atoms: _233  and  _234
REMARK  106  A    between atoms: _233  and  _236
REMARK  107  A    between atoms: _239  and  _241
REMARK  108  A    between atoms: _241  and  _242
REMARK  109  A    between atoms: _244  and  _246
REMARK  110  A    between atoms: _246  and  _247
REMARK  111  A    between atoms: _246  and  _249
REMARK  112  A    between atoms: _249  and  _250
REMARK  113  A    between atoms: _255  and  _257
REMARK  114  A    between atoms: _257  and  _258
REMARK  115  A    between atoms: _257  and  _260
REMARK  116  A    between atoms: _263  and  _265
REMARK  117  A    between atoms: _265  and  _266
REMARK  118  A    between atoms: _265  and  _268
REMARK  119  A    between atoms: _268  and  _269
REMARK  120  A    between atoms: _272  and  _274
REMARK  121  A    between atoms: _274  and  _275
REMARK  122  A    between atoms: _274  and  _277
REMARK  123  A    between atoms: _277  and  _278
REMARK  124  A    between atoms: _280  and  _282
REMARK  125  A    between atoms: _282  and  _283
REMARK  126  A    between atoms: _282  and  _285
REMARK  127  A    between atoms: _285  and  _286
REMARK  128  A    between atoms: _289  and  _291
REMARK  129  A    between atoms: _291  and  _292
REMARK  130  A    between atoms: _291  and  _294
REMARK  131  A    between atoms: _294  and  _295
REMARK  132  A    between atoms: _298  and  _300
REMARK  133  A    between atoms: _300  and  _301
REMARK  134  A    between atoms: _300  and  _303
REMARK  135  A    between atoms: _303  and  _304
REMARK  136  A    between atoms: _304  and  _305
REMARK  137  A    between atoms: _308  and  _310
REMARK  138  A    between atoms: _310  and  _311
REMARK  139  A    between atoms: _310  and  _313
REMARK  140  A    between atoms: _313  and  _314
REMARK  141  A    between atoms: _317  and  _319
REMARK  142  A    between atoms: _319  and  _320
REMARK  143  A    between atoms: _319  and  _322
REMARK  144  A    between atoms: _322  and  _323
REMARK  145  A    between atoms: _328  and  _330
REMARK  146  A    between atoms: _330  and  _331
REMARK  147  A    between atoms: _330  and  _333
REMARK  148  A    between atoms: _333  and  _334
REMARK  149  A    between atoms: _334  and  _335
REMARK  150  A    between atoms: _335  and  _336
REMARK  151  A    between atoms: _336  and  _337
REMARK  152  A    between atoms: _341  and  _343
REMARK  153  A    between atoms: _343  and  _344
REMARK  154  A    between atoms: _343  and  _346
REMARK  155  A    between atoms: _346  and  _347
REMARK  156  A    between atoms: _350  and  _352
REMARK  157  A    between atoms: _352  and  _353
REMARK  158  A    between atoms: _352  and  _355
REMARK  159  A    between atoms: _355  and  _356
REMARK  160  A    between atoms: _359  and  _361
REMARK  161  A    between atoms: _361  and  _362
REMARK  162  A    between atoms: _361  and  _364
REMARK  163  A    between atoms: _364  and  _365
REMARK  164  A    between atoms: _368  and  _370
REMARK  165  A    between atoms: _370  and  _371
REMARK  166  A    between atoms: _374  and  _376
REMARK  167  A    between atoms: _376  and  _377
REMARK  168  A    between atoms: _376  and  _379
REMARK  169  A    between atoms: _379  and  _380
REMARK  170  A    between atoms: _383  and  _385
REMARK  171  A    between atoms: _385  and  _386
REMARK  172  A    between atoms: _385  and  _388
REMARK  173  A    between atoms: _388  and  _389
REMARK  174  A    between atoms: _391  and  _393
REMARK  175  A    between atoms: _393  and  _394
REMARK  176  A    between atoms: _393  and  _396
REMARK  177  A    between atoms: _396  and  _397
REMARK  178  A    between atoms: _400  and  _402
REMARK  179  A    between atoms: _402  and  _403
REMARK  180  A    between atoms: _402  and  _405
REMARK  181  A    between atoms: _405  and  _406
REMARK  182  A    between atoms: _406  and  _407
REMARK  183  A    between atoms: _407  and  _408
REMARK  184  A    between atoms: _408  and  _409
REMARK  185  A    between atoms: _413  and  _415
REMARK  186  A    between atoms: _415  and  _416
REMARK  187  A    between atoms: _415  and  _418
REMARK  188  A    between atoms: _418  and  _419
REMARK  189  A    between atoms: _422  and  _424
REMARK  190  A    between atoms: _424  and  _425
REMARK  191  A    between atoms: _424  and  _427
REMARK  192  A    between atoms: _427  and  _428
REMARK  193  A    between atoms: _428  and  _429
REMARK  194  A    between atoms: _431  and  _433
REMARK  195  A    between atoms: _433  and  _434
REMARK  196  A    between atoms: _433  and  _436
REMARK  197  A    between atoms: _436  and  _437
REMARK  198  A    between atoms: _437  and  _438
REMARK  199  A    between atoms: _441  and  _443
REMARK  200  A    between atoms: _443  and  _444
REMARK  201  A    between atoms: _443  and  _446
REMARK  202  A    between atoms: _446  and  _447
REMARK  203  A    between atoms: _450  and  _452
REMARK  204  A    between atoms: _452  and  _453
REMARK  205  A    between atoms: _452  and  _455
REMARK  206  A    between atoms: _455  and  _456
REMARK  207  A    between atoms: _458  and  _460
REMARK  208  A    between atoms: _460  and  _461
REMARK  209  A    between atoms: _460  and  _463
REMARK  210  A    between atoms: _463  and  _464
REMARK  211  A    between atoms: _467  and  _469
REMARK  212  A    between atoms: _469  and  _470
REMARK  213  A    between atoms: _469  and  _472
REMARK  214  A    between atoms: _472  and  _473
REMARK  215  A    between atoms: _476  and  _478
REMARK  216  A    between atoms: _478  and  _479
REMARK  217  A    between atoms: _478  and  _481
REMARK  218  A    between atoms: _481  and  _482
REMARK  219  A    between atoms: _482  and  _483
REMARK  220  A    between atoms: _486  and  _488
REMARK  221  A    between atoms: _488  and  _489
REMARK  222  A    between atoms: _491  and  _493
REMARK  223  A    between atoms: _493  and  _494
REMARK  224  A    between atoms: _493  and  _496
REMARK  225  A    between atoms: _496  and  _497
REMARK  226  A    between atoms: _500  and  _502
REMARK  227  A    between atoms: _502  and  _503
REMARK  228  A    between atoms: _502  and  _505
REMARK  229  A    between atoms: _505  and  _506
REMARK  230  A    between atoms: _509  and  _511
REMARK  231  A    between atoms: _511  and  _512
REMARK  232  A    between atoms: _511  and  _514
REMARK  233  A    between atoms: _514  and  _515
REMARK  234  A    between atoms: _518  and  _520
REMARK  235  A    between atoms: _520  and  _521
REMARK  236  A    between atoms: _520  and  _523
REMARK  237  A    between atoms: _523  and  _524
REMARK  238  A    between atoms: _527  and  _529
REMARK  239  A    between atoms: _529  and  _530
REMARK  240  A    between atoms: _529  and  _532
REMARK  241  A    between atoms: _532  and  _533
REMARK  242  A    between atoms: _533  and  _534
REMARK  243  A    between atoms: _534  and  _535
REMARK  244  A    between atoms: _535  and  _536
REMARK  245  A    between atoms: _540  and  _542
REMARK  246  A    between atoms: _542  and  _543
REMARK  247  A    between atoms: _542  and  _545
REMARK  248  A    between atoms: _545  and  _546
REMARK  249  A    between atoms: _551  and  _553
REMARK  250  A    between atoms: _553  and  _554
REMARK  251  A    between atoms: _553  and  _556
REMARK  252  A    between atoms: _556  and  _557
REMARK  253  A    between atoms: _560  and  _562
REMARK  254  A    between atoms: _562  and  _563
REMARK  255  A    between atoms: _566  and  _568
REMARK  256  A    between atoms: _568  and  _569
REMARK  257  A    between atoms: _568  and  _571
REMARK  258  A    between atoms: _571  and  _572
REMARK  259  A    between atoms: _575  and  _577
REMARK  260  A    between atoms: _577  and  _578
REMARK  261  A    between atoms: _581  and  _583
REMARK  262  A    between atoms: _583  and  _584
REMARK  263  A    between atoms: _583  and  _586
REMARK  264  A    between atoms: _589  and  _591
REMARK  265  A    between atoms: _591  and  _592
REMARK  266  A    between atoms: _594  and  _596
REMARK  267  A    between atoms: _596  and  _597
REMARK  268  A    between atoms: _600  and  _602
REMARK  269  A    between atoms: _602  and  _603
REMARK  270  A    between atoms: _602  and  _605
REMARK  271  A    between atoms: _605  and  _606
REMARK                            x       y       z     vdW  Elec       q    Type
REMARK                         _______ _______ _______ _____ _____    ______ ____
ROOT
ATOM      1  O   HOH     1     -13.047  19.566 -20.010  0.00  0.00    +0.000 OA
ENDROOT
TORSDOF 0
