REMARK  Name = ../refined-set-2016/3cd5/3cd5_pocket.pdb
REMARK  257 active torsions:
REMARK  status: ('A' for Active; 'I' for Inactive)
REMARK    1  A    between atoms: _1  and  _3
REMARK    2  A    between atoms: _3  and  _4
REMARK    3  A    between atoms: _3  and  _6
REMARK    4  A    between atoms: _6  and  _7
REMARK    5  A    between atoms: _7  and  _8
REMARK    6  A    between atoms: _11  and  _13
REMARK    7  A    between atoms: _13  and  _14
REMARK    8  A    between atoms: _16  and  _18
REMARK    9  A    between atoms: _18  and  _19
REMARK   10  A    between atoms: _18  and  _21
REMARK   11  A    between atoms: _23  and  _25
REMARK   12  A    between atoms: _25  and  _26
REMARK   13  A    between atoms: _25  and  _28
REMARK   14  A    between atoms: _28  and  _29
REMARK   15  A    between atoms: _32  and  _34
REMARK   16  A    between atoms: _34  and  _35
REMARK   17  A    between atoms: _34  and  _37
REMARK   18  A    between atoms: _40  and  _42
REMARK   19  A    between atoms: _42  and  _43
REMARK   20  A    between atoms: _46  and  _48
REMARK   21  A    between atoms: _48  and  _49
REMARK   22  A    between atoms: _48  and  _51
REMARK   23  A    between atoms: _51  and  _52
REMARK   24  A    between atoms: _54  and  _56
REMARK   25  A    between atoms: _56  and  _57
REMARK   26  A    between atoms: _56  and  _59
REMARK   27  A    between atoms: _59  and  _60
REMARK   28  A    between atoms: _63  and  _65
REMARK   29  A    between atoms: _65  and  _66
REMARK   30  A    between atoms: _65  and  _68
REMARK   31  A    between atoms: _68  and  _69
REMARK   32  A    between atoms: _74  and  _76
REMARK   33  A    between atoms: _76  and  _77
REMARK   34  A    between atoms: _76  and  _79
REMARK   35  A    between atoms: _79  and  _80
REMARK   36  A    between atoms: _80  and  _81
REMARK   37  A    between atoms: _81  and  _82
REMARK   38  A    between atoms: _91  and  _93
REMARK   39  A    between atoms: _93  and  _94
REMARK   40  A    between atoms: _96  and  _98
REMARK   41  A    between atoms: _98  and  _99
REMARK   42  A    between atoms: _98  and  _101
REMARK   43  A    between atoms: _101  and  _102
REMARK   44  A    between atoms: _102  and  _103
REMARK   45  A    between atoms: _106  and  _108
REMARK   46  A    between atoms: _108  and  _109
REMARK   47  A    between atoms: _108  and  _111
REMARK   48  A    between atoms: _114  and  _116
REMARK   49  A    between atoms: _116  and  _117
REMARK   50  A    between atoms: _116  and  _119
REMARK   51  A    between atoms: _119  and  _120
REMARK   52  A    between atoms: _123  and  _125
REMARK   53  A    between atoms: _125  and  _126
REMARK   54  A    between atoms: _125  and  _128
REMARK   55  A    between atoms: _128  and  _129
REMARK   56  A    between atoms: _129  and  _130
REMARK   57  A    between atoms: _130  and  _131
REMARK   58  A    between atoms: _131  and  _132
REMARK   59  A    between atoms: _136  and  _138
REMARK   60  A    between atoms: _138  and  _139
REMARK   61  A    between atoms: _138  and  _141
REMARK   62  A    between atoms: _141  and  _142
REMARK   63  A    between atoms: _142  and  _143
REMARK   64  A    between atoms: _143  and  _144
REMARK   65  A    between atoms: _144  and  _145
REMARK   66  A    between atoms: _149  and  _151
REMARK   67  A    between atoms: _151  and  _152
REMARK   68  A    between atoms: _151  and  _154
REMARK   69  A    between atoms: _154  and  _155
REMARK   70  A    between atoms: _160  and  _162
REMARK   71  A    between atoms: _162  and  _163
REMARK   72  A    between atoms: _162  and  _165
REMARK   73  A    between atoms: _165  and  _166
REMARK   74  A    between atoms: _171  and  _173
REMARK   75  A    between atoms: _173  and  _174
REMARK   76  A    between atoms: _177  and  _179
REMARK   77  A    between atoms: _179  and  _180
REMARK   78  A    between atoms: _179  and  _182
REMARK   79  A    between atoms: _182  and  _183
REMARK   80  A    between atoms: _188  and  _190
REMARK   81  A    between atoms: _190  and  _191
REMARK   82  A    between atoms: _194  and  _196
REMARK   83  A    between atoms: _196  and  _197
REMARK   84  A    between atoms: _200  and  _202
REMARK   85  A    between atoms: _202  and  _203
REMARK   86  A    between atoms: _202  and  _205
REMARK   87  A    between atoms: _205  and  _206
REMARK   88  A    between atoms: _211  and  _213
REMARK   89  A    between atoms: _213  and  _214
REMARK   90  A    between atoms: _213  and  _216
REMARK   91  A    between atoms: _216  and  _217
REMARK   92  A    between atoms: _220  and  _222
REMARK   93  A    between atoms: _222  and  _223
REMARK   94  A    between atoms: _225  and  _227
REMARK   95  A    between atoms: _227  and  _228
REMARK   96  A    between atoms: _227  and  _230
REMARK   97  A    between atoms: _230  and  _231
REMARK   98  A    between atoms: _231  and  _232
REMARK   99  A    between atoms: _235  and  _237
REMARK  100  A    between atoms: _237  and  _238
REMARK  101  A    between atoms: _237  and  _240
REMARK  102  A    between atoms: _240  and  _241
REMARK  103  A    between atoms: _244  and  _246
REMARK  104  A    between atoms: _246  and  _247
REMARK  105  A    between atoms: _246  and  _249
REMARK  106  A    between atoms: _249  and  _250
REMARK  107  A    between atoms: _252  and  _254
REMARK  108  A    between atoms: _254  and  _255
REMARK  109  A    between atoms: _254  and  _257
REMARK  110  A    between atoms: _257  and  _258
REMARK  111  A    between atoms: _261  and  _263
REMARK  112  A    between atoms: _263  and  _264
REMARK  113  A    between atoms: _263  and  _266
REMARK  114  A    between atoms: _266  and  _267
REMARK  115  A    between atoms: _267  and  _268
REMARK  116  A    between atoms: _270  and  _272
REMARK  117  A    between atoms: _272  and  _273
REMARK  118  A    between atoms: _276  and  _278
REMARK  119  A    between atoms: _278  and  _279
REMARK  120  A    between atoms: _282  and  _284
REMARK  121  A    between atoms: _284  and  _285
REMARK  122  A    between atoms: _284  and  _287
REMARK  123  A    between atoms: _287  and  _288
REMARK  124  A    between atoms: _291  and  _293
REMARK  125  A    between atoms: _293  and  _294
REMARK  126  A    between atoms: _297  and  _299
REMARK  127  A    between atoms: _299  and  _300
REMARK  128  A    between atoms: _303  and  _305
REMARK  129  A    between atoms: _305  and  _306
REMARK  130  A    between atoms: _308  and  _310
REMARK  131  A    between atoms: _310  and  _311
REMARK  132  A    between atoms: _310  and  _313
REMARK  133  A    between atoms: _313  and  _314
REMARK  134  A    between atoms: _319  and  _321
REMARK  135  A    between atoms: _321  and  _322
REMARK  136  A    between atoms: _321  and  _324
REMARK  137  A    between atoms: _324  and  _325
REMARK  138  A    between atoms: _328  and  _330
REMARK  139  A    between atoms: _330  and  _331
REMARK  140  A    between atoms: _330  and  _333
REMARK  141  A    between atoms: _336  and  _338
REMARK  142  A    between atoms: _338  and  _339
REMARK  143  A    between atoms: _338  and  _341
REMARK  144  A    between atoms: _341  and  _342
REMARK  145  A    between atoms: _342  and  _343
REMARK  146  A    between atoms: _343  and  _344
REMARK  147  A    between atoms: _344  and  _345
REMARK  148  A    between atoms: _349  and  _351
REMARK  149  A    between atoms: _351  and  _352
REMARK  150  A    between atoms: _351  and  _354
REMARK  151  A    between atoms: _354  and  _355
REMARK  152  A    between atoms: _357  and  _359
REMARK  153  A    between atoms: _359  and  _360
REMARK  154  A    between atoms: _359  and  _362
REMARK  155  A    between atoms: _362  and  _363
REMARK  156  A    between atoms: _368  and  _369
REMARK  157  A    between atoms: _371  and  _373
REMARK  158  A    between atoms: _373  and  _374
REMARK  159  A    between atoms: _373  and  _376
REMARK  160  A    between atoms: _376  and  _377
REMARK  161  A    between atoms: _377  and  _378
REMARK  162  A    between atoms: _381  and  _383
REMARK  163  A    between atoms: _383  and  _384
REMARK  164  A    between atoms: _383  and  _386
REMARK  165  A    between atoms: _386  and  _387
REMARK  166  A    between atoms: _392  and  _394
REMARK  167  A    between atoms: _394  and  _395
REMARK  168  A    between atoms: _394  and  _397
REMARK  169  A    between atoms: _397  and  _398
REMARK  170  A    between atoms: _401  and  _403
REMARK  171  A    between atoms: _403  and  _404
REMARK  172  A    between atoms: _403  and  _406
REMARK  173  A    between atoms: _406  and  _407
REMARK  174  A    between atoms: _407  and  _408
REMARK  175  A    between atoms: _408  and  _409
REMARK  176  A    between atoms: _418  and  _420
REMARK  177  A    between atoms: _420  and  _421
REMARK  178  A    between atoms: _423  and  _425
REMARK  179  A    between atoms: _425  and  _426
REMARK  180  A    between atoms: _425  and  _428
REMARK  181  A    between atoms: _428  and  _429
REMARK  182  A    between atoms: _429  and  _430
REMARK  183  A    between atoms: _432  and  _434
REMARK  184  A    between atoms: _434  and  _435
REMARK  185  A    between atoms: _434  and  _437
REMARK  186  A    between atoms: _437  and  _438
REMARK  187  A    between atoms: _438  and  _439
REMARK  188  A    between atoms: _441  and  _443
REMARK  189  A    between atoms: _443  and  _444
REMARK  190  A    between atoms: _443  and  _446
REMARK  191  A    between atoms: _446  and  _447
REMARK  192  A    between atoms: _452  and  _454
REMARK  193  A    between atoms: _454  and  _455
REMARK  194  A    between atoms: _454  and  _457
REMARK  195  A    between atoms: _457  and  _458
REMARK  196  A    between atoms: _460  and  _462
REMARK  197  A    between atoms: _462  and  _463
REMARK  198  A    between atoms: _466  and  _468
REMARK  199  A    between atoms: _468  and  _469
REMARK  200  A    between atoms: _468  and  _471
REMARK  201  A    between atoms: _474  and  _476
REMARK  202  A    between atoms: _476  and  _477
REMARK  203  A    between atoms: _476  and  _479
REMARK  204  A    between atoms: _479  and  _480
REMARK  205  A    between atoms: _482  and  _484
REMARK  206  A    between atoms: _484  and  _485
REMARK  207  A    between atoms: _487  and  _489
REMARK  208  A    between atoms: _489  and  _490
REMARK  209  A    between atoms: _489  and  _492
REMARK  210  A    between atoms: _492  and  _493
REMARK  211  A    between atoms: _498  and  _500
REMARK  212  A    between atoms: _500  and  _501
REMARK  213  A    between atoms: _500  and  _503
REMARK  214  A    between atoms: _503  and  _504
REMARK  215  A    between atoms: _509  and  _510
REMARK  216  A    between atoms: _512  and  _514
REMARK  217  A    between atoms: _514  and  _515
REMARK  218  A    between atoms: _514  and  _517
REMARK  219  A    between atoms: _519  and  _521
REMARK  220  A    between atoms: _521  and  _522
REMARK  221  A    between atoms: _521  and  _524
REMARK  222  A    between atoms: _524  and  _525
REMARK  223  A    between atoms: _528  and  _530
REMARK  224  A    between atoms: _530  and  _531
REMARK  225  A    between atoms: _530  and  _533
REMARK  226  A    between atoms: _533  and  _534
REMARK  227  A    between atoms: _537  and  _539
REMARK  228  A    between atoms: _539  and  _540
REMARK  229  A    between atoms: _539  and  _542
REMARK  230  A    between atoms: _542  and  _543
REMARK  231  A    between atoms: _543  and  _544
REMARK  232  A    between atoms: _544  and  _545
REMARK  233  A    between atoms: _545  and  _546
REMARK  234  A    between atoms: _550  and  _552
REMARK  235  A    between atoms: _552  and  _553
REMARK  236  A    between atoms: _552  and  _555
REMARK  237  A    between atoms: _555  and  _556
REMARK  238  A    between atoms: _556  and  _557
REMARK  239  A    between atoms: _557  and  _558
REMARK  240  A    between atoms: _558  and  _559
REMARK  241  A    between atoms: _563  and  _565
REMARK  242  A    between atoms: _565  and  _566
REMARK  243  A    between atoms: _565  and  _568
REMARK  244  A    between atoms: _568  and  _569
REMARK  245  A    between atoms: _569  and  _570
REMARK  246  A    between atoms: _570  and  _571
REMARK  247  A    between atoms: _580  and  _582
REMARK  248  A    between atoms: _582  and  _583
REMARK  249  A    between atoms: _582  and  _585
REMARK  250  A    between atoms: _585  and  _586
REMARK  251  A    between atoms: _589  and  _591
REMARK  252  A    between atoms: _591  and  _592
REMARK  253  A    between atoms: _595  and  _597
REMARK  254  A    between atoms: _597  and  _598
REMARK  255  A    between atoms: _597  and  _600
REMARK  256  A    between atoms: _600  and  _601
REMARK  257  A    between atoms: _601  and  _602
REMARK                            x       y       z     vdW  Elec       q    Type
REMARK                         _______ _______ _______ _____ _____    ______ ____
ROOT
ATOM      1  CA  SER A   7      20.376  11.982  46.324  0.00  0.00    +0.178 C 
ENDROOT
BRANCH   1   4
ATOM      2  C   ALA A   6      20.472  13.978  47.726  0.00  0.00    +0.241 C 
ATOM      3  O   ALA A   6      21.697  13.912  47.828  0.00  0.00    -0.273 OA
ATOM      4  N   SER A   7      19.754  13.094  47.039  0.00  0.00    -0.295 N 
ATOM      5  H   SER A   7      18.720  13.197  47.010  0.00  0.00    +0.150 HD
BRANCH   2   6
ATOM      6  CA  ALA A   6      19.695  15.101  48.406  0.00  0.00    +0.149 C 
ATOM      7  CB  ALA A   6      19.132  14.615  49.746  0.00  0.00    +0.031 C 
BRANCH   6   9
ATOM      8  C   VAL A   5      18.876  16.205  46.385  0.00  0.00    +0.241 C 
ATOM      9  N   ALA A   6      18.623  15.605  47.546  0.00  0.00    -0.297 N 
ATOM     10  H   ALA A   6      17.635  15.491  47.851  0.00  0.00    +0.150 HD
ATOM     11  O   VAL A   5      20.013  16.440  45.977  0.00  0.00    -0.273 OA
BRANCH   8  12
ATOM     12  CA  VAL A   5      17.671  16.610  45.548  0.00  0.00    +0.149 C 
BRANCH  12  14
ATOM     13  C   LEU A   4      16.715  14.441  44.973  0.00  0.00    +0.241 C 
ATOM     14  N   VAL A   5      16.615  15.600  45.620  0.00  0.00    -0.297 N 
ATOM     15  H   VAL A   5      15.767  15.792  46.190  0.00  0.00    +0.150 HD
ATOM     16  O   LEU A   4      17.723  14.100  44.362  0.00  0.00    -0.273 OA
BRANCH  13  17
ATOM     17  CA  LEU A   4      15.503  13.515  45.025  0.00  0.00    +0.149 C 
BRANCH  17  20
ATOM     18  C   CYS A   3      15.672  12.731  47.312  0.00  0.00    +0.242 C 
ATOM     19  O   CYS A   3      16.798  12.294  47.093  0.00  0.00    -0.273 OA
ATOM     20  N   LEU A   4      14.974  13.376  46.383  0.00  0.00    -0.297 N 
ATOM     21  H   LEU A   4      14.048  13.784  46.622  0.00  0.00    +0.150 HD
BRANCH  18  22
ATOM     22  CA  CYS A   3      15.044  12.526  48.692  0.00  0.00    +0.160 C 
BRANCH  22  24
ATOM     23  C   GLY A   2      12.601  12.903  48.470  0.00  0.00    +0.243 C 
ATOM     24  N   CYS A   3      13.796  13.258  48.937  0.00  0.00    -0.296 N 
ATOM     25  H   CYS A   3      13.849  14.118  49.519  0.00  0.00    +0.150 HD
ATOM     26  O   GLY A   2      12.399  11.892  47.805  0.00  0.00    -0.273 OA
BRANCH  23  27
ATOM     27  CA  GLY A   2      11.457  13.843  48.806  0.00  0.00    +0.176 C 
BRANCH  27  29
ATOM     28  C   GLU A   1      10.655  14.146  46.536  0.00  0.00    +0.238 C 
ATOM     29  N   GLY A   2      10.423  13.775  47.791  0.00  0.00    -0.296 N 
ATOM     30  H   GLY A   2       9.478  13.428  48.051  0.00  0.00    +0.150 HD
ATOM     31  O   GLU A   1      11.728  14.631  46.170  0.00  0.00    -0.274 OA
BRANCH  28  32
ATOM     32  CA  GLU A   1       9.515  13.951  45.545  0.00  0.00    +0.145 C 
BRANCH  32  33
ATOM     33  N   GLU A   1       9.054  15.258  45.094  0.00  0.00    -0.238 NA
ATOM     34  H   GLU A   1       9.412  15.638  44.195  0.00  0.00    +0.142 HD
ENDBRANCH  32  33
BRANCH  32  35
ATOM     35  CB  GLU A   1       9.993  13.105  44.365  0.00  0.00    +0.038 C 
BRANCH  35  36
ATOM     36  CG  GLU A   1      10.560  11.759  44.783  0.00  0.00    +0.116 C 
BRANCH  36  37
ATOM     37  CD  GLU A   1      10.587  10.747  43.660  0.00  0.00    +0.365 C 
ATOM     38  OE2 GLU A   1      10.407   9.532  43.950  0.00  0.00    -0.246 OA
ATOM     39  OE1 GLU A   1      10.808  11.166  42.498  0.00  0.00    -0.246 OA
ENDBRANCH  36  37
ENDBRANCH  35  36
ENDBRANCH  32  35
ENDBRANCH  28  32
ENDBRANCH  27  29
ENDBRANCH  23  27
ENDBRANCH  22  24
BRANCH  22  40
ATOM     40  CB  CYS A   3      14.881  11.022  48.955  0.00  0.00    +0.098 C 
ATOM     41  SG  CYS A   3      14.339  10.624  50.626  0.00  0.00    -0.080 S 
ENDBRANCH  22  40
ENDBRANCH  18  22
ENDBRANCH  17  20
BRANCH  17  42
ATOM     42  CB  LEU A   4      14.433  14.015  44.052  0.00  0.00    +0.029 C 
BRANCH  42  43
ATOM     43  CG  LEU A   4      14.906  14.308  42.619  0.00  0.00    +0.002 C 
ATOM     44  CD2 LEU A   4      15.644  13.116  42.002  0.00  0.00    +0.000 C 
ATOM     45  CD1 LEU A   4      13.717  14.706  41.762  0.00  0.00    +0.000 C 
ENDBRANCH  42  43
ENDBRANCH  17  42
ENDBRANCH  13  17
ENDBRANCH  12  14
BRANCH  12  46
ATOM     46  CB  VAL A   5      17.195  18.006  45.999  0.00  0.00    +0.027 C 
ATOM     47  CG2 VAL A   5      18.341  19.008  45.911  0.00  0.00    +0.002 C 
ATOM     48  CG1 VAL A   5      16.019  18.476  45.154  0.00  0.00    +0.002 C 
ENDBRANCH  12  46
ENDBRANCH   8  12
ENDBRANCH   6   9
ENDBRANCH   2   6
ENDBRANCH   1   4
BRANCH   1  49
ATOM     49  C   SER A   7      21.266  12.515  45.185  0.00  0.00    +0.243 C 
ATOM     50  O   SER A   7      22.420  12.110  45.046  0.00  0.00    -0.273 OA
ATOM     51  N   THR A   8      20.734  13.444  44.398  0.00  0.00    -0.295 N 
ATOM     52  H   THR A   8      19.755  13.749  44.570  0.00  0.00    +0.150 HD
BRANCH  51  53
ATOM     53  CA  THR A   8      21.482  14.050  43.299  0.00  0.00    +0.176 C 
BRANCH  53  54
ATOM     54  C   THR A   8      22.694  14.818  43.815  0.00  0.00    +0.243 C 
ATOM     55  N   ASN A   9      22.528  15.471  44.965  0.00  0.00    -0.297 N 
ATOM     56  H   ASN A   9      21.600  15.419  45.432  0.00  0.00    +0.150 HD
ATOM     57  O   THR A   8      23.746  14.815  43.182  0.00  0.00    -0.273 OA
BRANCH  55  58
ATOM     58  CA  ASN A   9      23.581  16.255  45.603  0.00  0.00    +0.158 C 
BRANCH  58  59
ATOM     59  C   ASN A   9      24.731  15.366  46.063  0.00  0.00    +0.241 C 
ATOM     60  N   ARG A  10      24.410  14.137  46.462  0.00  0.00    -0.297 N 
ATOM     61  H   ARG A  10      23.407  13.863  46.493  0.00  0.00    +0.150 HD
ATOM     62  O   ASN A   9      25.881  15.787  46.058  0.00  0.00    -0.273 OA
BRANCH  60  63
ATOM     63  CA  ARG A  10      25.423  13.160  46.858  0.00  0.00    +0.149 C 
BRANCH  63  64
ATOM     64  C   ARG A  10      26.204  12.667  45.643  0.00  0.00    +0.241 C 
ATOM     65  O   ARG A  10      27.428  12.566  45.687  0.00  0.00    -0.273 OA
ATOM     66  N   GLY A  11      25.494  12.359  44.564  0.00  0.00    -0.296 N 
ATOM     67  H   GLY A  11      24.456  12.407  44.610  0.00  0.00    +0.150 HD
BRANCH  66  68
ATOM     68  CA  GLY A  11      26.129  11.957  43.323  0.00  0.00    +0.163 C 
BRANCH  68  69
ATOM     69  C   GLY A  11      27.029  13.031  42.736  0.00  0.00    +0.229 C 
ATOM     70  O   GLY A  11      27.994  12.724  42.044  0.00  0.00    -0.286 OA
ENDBRANCH  68  69
ENDBRANCH  66  68
ENDBRANCH  63  64
BRANCH  63  71
ATOM     71  CB  ARG A  10      24.780  11.975  47.579  0.00  0.00    +0.033 C 
BRANCH  71  72
ATOM     72  CG  ARG A  10      25.779  10.954  48.071  0.00  0.00    +0.045 C 
BRANCH  72  73
ATOM     73  CD  ARG A  10      25.162   9.831  48.876  0.00  0.00    +0.174 C 
BRANCH  73  74
ATOM     74  NE  ARG A  10      24.622   8.792  48.005  0.00  0.00    -0.265 N 
ATOM     75  CZ  ARG A  10      24.473   7.514  48.332  0.00  0.00    +0.342 C 
ATOM     76  NH2 ARG A  10      24.816   7.065  49.537  0.00  0.00    -0.292 N 
ATOM     77 HH21 ARG A  10      25.209   7.719  50.243  0.00  0.00    +0.255 HD
ATOM     78 HH22 ARG A  10      24.691   6.060  49.772  0.00  0.00    +0.255 HD
ATOM     79  NH1 ARG A  10      23.968   6.674  47.440  0.00  0.00    -0.292 N 
ATOM     80 HH11 ARG A  10      23.846   5.670  47.682  0.00  0.00    +0.255 HD
ATOM     81 HH12 ARG A  10      23.694   7.019  46.498  0.00  0.00    +0.255 HD
ATOM     82  HE  ARG A  10      24.330   9.076  47.048  0.00  0.00    +0.259 HD
ENDBRANCH  73  74
ENDBRANCH  72  73
ENDBRANCH  71  72
ENDBRANCH  63  71
ENDBRANCH  60  63
ENDBRANCH  58  59
BRANCH  58  83
ATOM     83  CB  ASN A   9      23.000  17.021  46.799  0.00  0.00    +0.114 C 
BRANCH  83  84
ATOM     84  CG  ASN A   9      23.997  17.973  47.440  0.00  0.00    +0.222 C 
ATOM     85  OD1 ASN A   9      24.383  17.806  48.595  0.00  0.00    -0.275 OA
ATOM     86  ND2 ASN A   9      24.396  18.984  46.700  0.00  0.00    -0.329 N 
ATOM     87 HD21 ASN A   9      25.064  19.681  47.088  0.00  0.00    +0.145 HD
ATOM     88 HD22 ASN A   9      24.044  19.087  45.727  0.00  0.00    +0.145 HD
ENDBRANCH  83  84
ENDBRANCH  58  83
ENDBRANCH  55  58
ENDBRANCH  53  54
BRANCH  53  89
ATOM     89  CB  THR A   8      20.571  15.004  42.488  0.00  0.00    +0.137 C 
ATOM     90  CG2 THR A   8      21.312  15.605  41.304  0.00  0.00    +0.034 C 
BRANCH  89  91
ATOM     91  OG1 THR A   8      19.500  14.268  41.888  0.00  0.00    -0.382 OA
ATOM     92  HG1 THR A   8      18.965  13.830  42.596  0.00  0.00    +0.210 HD
ENDBRANCH  89  91
ENDBRANCH  53  89
ENDBRANCH  51  53
ENDBRANCH   1  49
BRANCH   1  93
ATOM     93  CB  SER A   7      19.297  11.031  45.784  0.00  0.00    +0.166 C 
BRANCH  93  94
ATOM     94  OG  SER A   7      19.861   9.897  45.140  0.00  0.00    -0.380 OA
ATOM     95  H   SER A   7      20.420   9.396  45.786  0.00  0.00    +0.211 HD
ENDBRANCH  93  94
ENDBRANCH   1  93
TORSDOF 39
REMARK  Name = ../refined-set-2016/3cd5/3cd5_pocket.pdb
REMARK  257 active torsions:
REMARK  status: ('A' for Active; 'I' for Inactive)
REMARK    1  A    between atoms: _1  and  _3
REMARK    2  A    between atoms: _3  and  _4
REMARK    3  A    between atoms: _3  and  _6
REMARK    4  A    between atoms: _6  and  _7
REMARK    5  A    between atoms: _7  and  _8
REMARK    6  A    between atoms: _11  and  _13
REMARK    7  A    between atoms: _13  and  _14
REMARK    8  A    between atoms: _16  and  _18
REMARK    9  A    between atoms: _18  and  _19
REMARK   10  A    between atoms: _18  and  _21
REMARK   11  A    between atoms: _23  and  _25
REMARK   12  A    between atoms: _25  and  _26
REMARK   13  A    between atoms: _25  and  _28
REMARK   14  A    between atoms: _28  and  _29
REMARK   15  A    between atoms: _32  and  _34
REMARK   16  A    between atoms: _34  and  _35
REMARK   17  A    between atoms: _34  and  _37
REMARK   18  A    between atoms: _40  and  _42
REMARK   19  A    between atoms: _42  and  _43
REMARK   20  A    between atoms: _46  and  _48
REMARK   21  A    between atoms: _48  and  _49
REMARK   22  A    between atoms: _48  and  _51
REMARK   23  A    between atoms: _51  and  _52
REMARK   24  A    between atoms: _54  and  _56
REMARK   25  A    between atoms: _56  and  _57
REMARK   26  A    between atoms: _56  and  _59
REMARK   27  A    between atoms: _59  and  _60
REMARK   28  A    between atoms: _63  and  _65
REMARK   29  A    between atoms: _65  and  _66
REMARK   30  A    between atoms: _65  and  _68
REMARK   31  A    between atoms: _68  and  _69
REMARK   32  A    between atoms: _74  and  _76
REMARK   33  A    between atoms: _76  and  _77
REMARK   34  A    between atoms: _76  and  _79
REMARK   35  A    between atoms: _79  and  _80
REMARK   36  A    between atoms: _80  and  _81
REMARK   37  A    between atoms: _81  and  _82
REMARK   38  A    between atoms: _91  and  _93
REMARK   39  A    between atoms: _93  and  _94
REMARK   40  A    between atoms: _96  and  _98
REMARK   41  A    between atoms: _98  and  _99
REMARK   42  A    between atoms: _98  and  _101
REMARK   43  A    between atoms: _101  and  _102
REMARK   44  A    between atoms: _102  and  _103
REMARK   45  A    between atoms: _106  and  _108
REMARK   46  A    between atoms: _108  and  _109
REMARK   47  A    between atoms: _108  and  _111
REMARK   48  A    between atoms: _114  and  _116
REMARK   49  A    between atoms: _116  and  _117
REMARK   50  A    between atoms: _116  and  _119
REMARK   51  A    between atoms: _119  and  _120
REMARK   52  A    between atoms: _123  and  _125
REMARK   53  A    between atoms: _125  and  _126
REMARK   54  A    between atoms: _125  and  _128
REMARK   55  A    between atoms: _128  and  _129
REMARK   56  A    between atoms: _129  and  _130
REMARK   57  A    between atoms: _130  and  _131
REMARK   58  A    between atoms: _131  and  _132
REMARK   59  A    between atoms: _136  and  _138
REMARK   60  A    between atoms: _138  and  _139
REMARK   61  A    between atoms: _138  and  _141
REMARK   62  A    between atoms: _141  and  _142
REMARK   63  A    between atoms: _142  and  _143
REMARK   64  A    between atoms: _143  and  _144
REMARK   65  A    between atoms: _144  and  _145
REMARK   66  A    between atoms: _149  and  _151
REMARK   67  A    between atoms: _151  and  _152
REMARK   68  A    between atoms: _151  and  _154
REMARK   69  A    between atoms: _154  and  _155
REMARK   70  A    between atoms: _160  and  _162
REMARK   71  A    between atoms: _162  and  _163
REMARK   72  A    between atoms: _162  and  _165
REMARK   73  A    between atoms: _165  and  _166
REMARK   74  A    between atoms: _171  and  _173
REMARK   75  A    between atoms: _173  and  _174
REMARK   76  A    between atoms: _177  and  _179
REMARK   77  A    between atoms: _179  and  _180
REMARK   78  A    between atoms: _179  and  _182
REMARK   79  A    between atoms: _182  and  _183
REMARK   80  A    between atoms: _188  and  _190
REMARK   81  A    between atoms: _190  and  _191
REMARK   82  A    between atoms: _194  and  _196
REMARK   83  A    between atoms: _196  and  _197
REMARK   84  A    between atoms: _200  and  _202
REMARK   85  A    between atoms: _202  and  _203
REMARK   86  A    between atoms: _202  and  _205
REMARK   87  A    between atoms: _205  and  _206
REMARK   88  A    between atoms: _211  and  _213
REMARK   89  A    between atoms: _213  and  _214
REMARK   90  A    between atoms: _213  and  _216
REMARK   91  A    between atoms: _216  and  _217
REMARK   92  A    between atoms: _220  and  _222
REMARK   93  A    between atoms: _222  and  _223
REMARK   94  A    between atoms: _225  and  _227
REMARK   95  A    between atoms: _227  and  _228
REMARK   96  A    between atoms: _227  and  _230
REMARK   97  A    between atoms: _230  and  _231
REMARK   98  A    between atoms: _231  and  _232
REMARK   99  A    between atoms: _235  and  _237
REMARK  100  A    between atoms: _237  and  _238
REMARK  101  A    between atoms: _237  and  _240
REMARK  102  A    between atoms: _240  and  _241
REMARK  103  A    between atoms: _244  and  _246
REMARK  104  A    between atoms: _246  and  _247
REMARK  105  A    between atoms: _246  and  _249
REMARK  106  A    between atoms: _249  and  _250
REMARK  107  A    between atoms: _252  and  _254
REMARK  108  A    between atoms: _254  and  _255
REMARK  109  A    between atoms: _254  and  _257
REMARK  110  A    between atoms: _257  and  _258
REMARK  111  A    between atoms: _261  and  _263
REMARK  112  A    between atoms: _263  and  _264
REMARK  113  A    between atoms: _263  and  _266
REMARK  114  A    between atoms: _266  and  _267
REMARK  115  A    between atoms: _267  and  _268
REMARK  116  A    between atoms: _270  and  _272
REMARK  117  A    between atoms: _272  and  _273
REMARK  118  A    between atoms: _276  and  _278
REMARK  119  A    between atoms: _278  and  _279
REMARK  120  A    between atoms: _282  and  _284
REMARK  121  A    between atoms: _284  and  _285
REMARK  122  A    between atoms: _284  and  _287
REMARK  123  A    between atoms: _287  and  _288
REMARK  124  A    between atoms: _291  and  _293
REMARK  125  A    between atoms: _293  and  _294
REMARK  126  A    between atoms: _297  and  _299
REMARK  127  A    between atoms: _299  and  _300
REMARK  128  A    between atoms: _303  and  _305
REMARK  129  A    between atoms: _305  and  _306
REMARK  130  A    between atoms: _308  and  _310
REMARK  131  A    between atoms: _310  and  _311
REMARK  132  A    between atoms: _310  and  _313
REMARK  133  A    between atoms: _313  and  _314
REMARK  134  A    between atoms: _319  and  _321
REMARK  135  A    between atoms: _321  and  _322
REMARK  136  A    between atoms: _321  and  _324
REMARK  137  A    between atoms: _324  and  _325
REMARK  138  A    between atoms: _328  and  _330
REMARK  139  A    between atoms: _330  and  _331
REMARK  140  A    between atoms: _330  and  _333
REMARK  141  A    between atoms: _336  and  _338
REMARK  142  A    between atoms: _338  and  _339
REMARK  143  A    between atoms: _338  and  _341
REMARK  144  A    between atoms: _341  and  _342
REMARK  145  A    between atoms: _342  and  _343
REMARK  146  A    between atoms: _343  and  _344
REMARK  147  A    between atoms: _344  and  _345
REMARK  148  A    between atoms: _349  and  _351
REMARK  149  A    between atoms: _351  and  _352
REMARK  150  A    between atoms: _351  and  _354
REMARK  151  A    between atoms: _354  and  _355
REMARK  152  A    between atoms: _357  and  _359
REMARK  153  A    between atoms: _359  and  _360
REMARK  154  A    between atoms: _359  and  _362
REMARK  155  A    between atoms: _362  and  _363
REMARK  156  A    between atoms: _368  and  _369
REMARK  157  A    between atoms: _371  and  _373
REMARK  158  A    between atoms: _373  and  _374
REMARK  159  A    between atoms: _373  and  _376
REMARK  160  A    between atoms: _376  and  _377
REMARK  161  A    between atoms: _377  and  _378
REMARK  162  A    between atoms: _381  and  _383
REMARK  163  A    between atoms: _383  and  _384
REMARK  164  A    between atoms: _383  and  _386
REMARK  165  A    between atoms: _386  and  _387
REMARK  166  A    between atoms: _392  and  _394
REMARK  167  A    between atoms: _394  and  _395
REMARK  168  A    between atoms: _394  and  _397
REMARK  169  A    between atoms: _397  and  _398
REMARK  170  A    between atoms: _401  and  _403
REMARK  171  A    between atoms: _403  and  _404
REMARK  172  A    between atoms: _403  and  _406
REMARK  173  A    between atoms: _406  and  _407
REMARK  174  A    between atoms: _407  and  _408
REMARK  175  A    between atoms: _408  and  _409
REMARK  176  A    between atoms: _418  and  _420
REMARK  177  A    between atoms: _420  and  _421
REMARK  178  A    between atoms: _423  and  _425
REMARK  179  A    between atoms: _425  and  _426
REMARK  180  A    between atoms: _425  and  _428
REMARK  181  A    between atoms: _428  and  _429
REMARK  182  A    between atoms: _429  and  _430
REMARK  183  A    between atoms: _432  and  _434
REMARK  184  A    between atoms: _434  and  _435
REMARK  185  A    between atoms: _434  and  _437
REMARK  186  A    between atoms: _437  and  _438
REMARK  187  A    between atoms: _438  and  _439
REMARK  188  A    between atoms: _441  and  _443
REMARK  189  A    between atoms: _443  and  _444
REMARK  190  A    between atoms: _443  and  _446
REMARK  191  A    between atoms: _446  and  _447
REMARK  192  A    between atoms: _452  and  _454
REMARK  193  A    between atoms: _454  and  _455
REMARK  194  A    between atoms: _454  and  _457
REMARK  195  A    between atoms: _457  and  _458
REMARK  196  A    between atoms: _460  and  _462
REMARK  197  A    between atoms: _462  and  _463
REMARK  198  A    between atoms: _466  and  _468
REMARK  199  A    between atoms: _468  and  _469
REMARK  200  A    between atoms: _468  and  _471
REMARK  201  A    between atoms: _474  and  _476
REMARK  202  A    between atoms: _476  and  _477
REMARK  203  A    between atoms: _476  and  _479
REMARK  204  A    between atoms: _479  and  _480
REMARK  205  A    between atoms: _482  and  _484
REMARK  206  A    between atoms: _484  and  _485
REMARK  207  A    between atoms: _487  and  _489
REMARK  208  A    between atoms: _489  and  _490
REMARK  209  A    between atoms: _489  and  _492
REMARK  210  A    between atoms: _492  and  _493
REMARK  211  A    between atoms: _498  and  _500
REMARK  212  A    between atoms: _500  and  _501
REMARK  213  A    between atoms: _500  and  _503
REMARK  214  A    between atoms: _503  and  _504
REMARK  215  A    between atoms: _509  and  _510
REMARK  216  A    between atoms: _512  and  _514
REMARK  217  A    between atoms: _514  and  _515
REMARK  218  A    between atoms: _514  and  _517
REMARK  219  A    between atoms: _519  and  _521
REMARK  220  A    between atoms: _521  and  _522
REMARK  221  A    between atoms: _521  and  _524
REMARK  222  A    between atoms: _524  and  _525
REMARK  223  A    between atoms: _528  and  _530
REMARK  224  A    between atoms: _530  and  _531
REMARK  225  A    between atoms: _530  and  _533
REMARK  226  A    between atoms: _533  and  _534
REMARK  227  A    between atoms: _537  and  _539
REMARK  228  A    between atoms: _539  and  _540
REMARK  229  A    between atoms: _539  and  _542
REMARK  230  A    between atoms: _542  and  _543
REMARK  231  A    between atoms: _543  and  _544
REMARK  232  A    between atoms: _544  and  _545
REMARK  233  A    between atoms: _545  and  _546
REMARK  234  A    between atoms: _550  and  _552
REMARK  235  A    between atoms: _552  and  _553
REMARK  236  A    between atoms: _552  and  _555
REMARK  237  A    between atoms: _555  and  _556
REMARK  238  A    between atoms: _556  and  _557
REMARK  239  A    between atoms: _557  and  _558
REMARK  240  A    between atoms: _558  and  _559
REMARK  241  A    between atoms: _563  and  _565
REMARK  242  A    between atoms: _565  and  _566
REMARK  243  A    between atoms: _565  and  _568
REMARK  244  A    between atoms: _568  and  _569
REMARK  245  A    between atoms: _569  and  _570
REMARK  246  A    between atoms: _570  and  _571
REMARK  247  A    between atoms: _580  and  _582
REMARK  248  A    between atoms: _582  and  _583
REMARK  249  A    between atoms: _582  and  _585
REMARK  250  A    between atoms: _585  and  _586
REMARK  251  A    between atoms: _589  and  _591
REMARK  252  A    between atoms: _591  and  _592
REMARK  253  A    between atoms: _595  and  _597
REMARK  254  A    between atoms: _597  and  _598
REMARK  255  A    between atoms: _597  and  _600
REMARK  256  A    between atoms: _600  and  _601
REMARK  257  A    between atoms: _601  and  _602
REMARK                            x       y       z     vdW  Elec       q    Type
REMARK                         _______ _______ _______ _____ _____    ______ ____
ROOT
ATOM      1  C   VAL A   2      28.931   7.717  49.249  0.00  0.00    +0.241 C 
ATOM      2  O   VAL A   2      27.828   8.018  49.704  0.00  0.00    -0.273 OA
ATOM      3  N   LEU A   3      29.118   6.682  48.430  0.00  0.00    -0.297 N 
ATOM      4  H   LEU A   3      30.089   6.394  48.195  0.00  0.00    +0.150 HD
ENDROOT
BRANCH   3   5
ATOM      5  CA  LEU A   3      27.996   5.938  47.850  0.00  0.00    +0.149 C 
BRANCH   5   6
ATOM      6  C   LEU A   3      27.634   4.656  48.606  0.00  0.00    +0.241 C 
ATOM      7  N   LYS A   4      28.475   4.261  49.565  0.00  0.00    -0.298 N 
ATOM      8  H   LYS A   4      29.377   4.767  49.673  0.00  0.00    +0.150 HD
ATOM      9  O   LEU A   3      26.603   4.041  48.316  0.00  0.00    -0.273 OA
BRANCH   7  10
ATOM     10  CA  LYS A   4      28.185   3.144  50.474  0.00  0.00    +0.137 C 
BRANCH  10  11
ATOM     11  C   LYS A   4      28.030   1.815  49.740  0.00  0.00    +0.227 C 
ATOM     12  O   LYS A   4      27.178   0.991  50.089  0.00  0.00    -0.286 OA
ENDBRANCH  10  11
BRANCH  10  13
ATOM     13  CB  LYS A   4      26.934   3.435  51.311  0.00  0.00    +0.028 C 
BRANCH  13  14
ATOM     14  CG  LYS A   4      26.922   4.811  51.972  0.00  0.00    -0.000 C 
BRANCH  14  15
ATOM     15  CD  LYS A   4      28.075   4.975  52.957  0.00  0.00    -0.024 C 
BRANCH  15  16
ATOM     16  CE  LYS A   4      27.790   6.077  53.978  0.00  0.00    -0.086 C 
BRANCH  16  17
ATOM     17  NZ  LYS A   4      29.023   6.805  54.404  0.00  0.00    +0.380 N 
ATOM     18  HZ1 LYS A   4      28.769   7.539  55.095  0.00  0.00    -0.089 HD
ATOM     19  HZ2 LYS A   4      29.688   6.133  54.838  0.00  0.00    -0.089 HD
ATOM     20  HZ3 LYS A   4      29.467   7.247  53.574  0.00  0.00    -0.089 HD
ENDBRANCH  16  17
ENDBRANCH  15  16
ENDBRANCH  14  15
ENDBRANCH  13  14
ENDBRANCH  10  13
ENDBRANCH   7  10
ENDBRANCH   5   6
BRANCH   5  21
ATOM     21  CB  LEU A   3      28.270   5.625  46.371  0.00  0.00    +0.029 C 
BRANCH  21  22
ATOM     22  CG  LEU A   3      28.283   6.829  45.421  0.00  0.00    +0.002 C 
ATOM     23  CD2 LEU A   3      26.936   7.543  45.406  0.00  0.00    +0.000 C 
ATOM     24  CD1 LEU A   3      28.692   6.409  44.011  0.00  0.00    +0.000 C 
ENDBRANCH  21  22
ENDBRANCH   5  21
ENDBRANCH   3   5
BRANCH   1  25
ATOM     25  CA  VAL A   2      30.169   8.539  49.630  0.00  0.00    +0.148 C 
BRANCH  25  28
ATOM     26  C   GLU A   1      31.342   6.996  51.110  0.00  0.00    +0.238 C 
ATOM     27  O   GLU A   1      30.445   7.026  51.955  0.00  0.00    -0.274 OA
ATOM     28  N   VAL A   2      31.306   7.694  49.982  0.00  0.00    -0.297 N 
ATOM     29  H   VAL A   2      32.113   7.637  49.328  0.00  0.00    +0.150 HD
BRANCH  26  30
ATOM     30  CA  GLU A   1      32.590   6.157  51.332  0.00  0.00    +0.145 C 
BRANCH  30  31
ATOM     31  N   GLU A   1      32.839   5.212  50.241  0.00  0.00    -0.238 NA
ATOM     32  H   GLU A   1      33.446   5.510  49.451  0.00  0.00    +0.142 HD
ENDBRANCH  30  31
BRANCH  30  33
ATOM     33  CB  GLU A   1      33.797   7.083  51.517  0.00  0.00    +0.038 C 
BRANCH  33  34
ATOM     34  CG  GLU A   1      34.889   6.479  52.386  0.00  0.00    +0.116 C 
BRANCH  34  35
ATOM     35  CD  GLU A   1      36.261   7.051  52.094  0.00  0.00    +0.365 C 
ATOM     36  OE2 GLU A   1      36.407   8.290  52.059  0.00  0.00    -0.246 OA
ATOM     37  OE1 GLU A   1      37.199   6.254  51.908  0.00  0.00    -0.246 OA
ENDBRANCH  34  35
ENDBRANCH  33  34
ENDBRANCH  30  33
ENDBRANCH  26  30
ENDBRANCH  25  28
BRANCH  25  38
ATOM     38  CB  VAL A   2      30.532   9.506  48.477  0.00  0.00    +0.027 C 
ATOM     39  CG2 VAL A   2      31.698  10.410  48.888  0.00  0.00    +0.002 C 
ATOM     40  CG1 VAL A   2      29.317  10.340  48.054  0.00  0.00    +0.002 C 
ENDBRANCH  25  38
ENDBRANCH   1  25
TORSDOF 19
REMARK  Name = ../refined-set-2016/3cd5/3cd5_pocket.pdb
REMARK  257 active torsions:
REMARK  status: ('A' for Active; 'I' for Inactive)
REMARK    1  A    between atoms: _1  and  _3
REMARK    2  A    between atoms: _3  and  _4
REMARK    3  A    between atoms: _3  and  _6
REMARK    4  A    between atoms: _6  and  _7
REMARK    5  A    between atoms: _7  and  _8
REMARK    6  A    between atoms: _11  and  _13
REMARK    7  A    between atoms: _13  and  _14
REMARK    8  A    between atoms: _16  and  _18
REMARK    9  A    between atoms: _18  and  _19
REMARK   10  A    between atoms: _18  and  _21
REMARK   11  A    between atoms: _23  and  _25
REMARK   12  A    between atoms: _25  and  _26
REMARK   13  A    between atoms: _25  and  _28
REMARK   14  A    between atoms: _28  and  _29
REMARK   15  A    between atoms: _32  and  _34
REMARK   16  A    between atoms: _34  and  _35
REMARK   17  A    between atoms: _34  and  _37
REMARK   18  A    between atoms: _40  and  _42
REMARK   19  A    between atoms: _42  and  _43
REMARK   20  A    between atoms: _46  and  _48
REMARK   21  A    between atoms: _48  and  _49
REMARK   22  A    between atoms: _48  and  _51
REMARK   23  A    between atoms: _51  and  _52
REMARK   24  A    between atoms: _54  and  _56
REMARK   25  A    between atoms: _56  and  _57
REMARK   26  A    between atoms: _56  and  _59
REMARK   27  A    between atoms: _59  and  _60
REMARK   28  A    between atoms: _63  and  _65
REMARK   29  A    between atoms: _65  and  _66
REMARK   30  A    between atoms: _65  and  _68
REMARK   31  A    between atoms: _68  and  _69
REMARK   32  A    between atoms: _74  and  _76
REMARK   33  A    between atoms: _76  and  _77
REMARK   34  A    between atoms: _76  and  _79
REMARK   35  A    between atoms: _79  and  _80
REMARK   36  A    between atoms: _80  and  _81
REMARK   37  A    between atoms: _81  and  _82
REMARK   38  A    between atoms: _91  and  _93
REMARK   39  A    between atoms: _93  and  _94
REMARK   40  A    between atoms: _96  and  _98
REMARK   41  A    between atoms: _98  and  _99
REMARK   42  A    between atoms: _98  and  _101
REMARK   43  A    between atoms: _101  and  _102
REMARK   44  A    between atoms: _102  and  _103
REMARK   45  A    between atoms: _106  and  _108
REMARK   46  A    between atoms: _108  and  _109
REMARK   47  A    between atoms: _108  and  _111
REMARK   48  A    between atoms: _114  and  _116
REMARK   49  A    between atoms: _116  and  _117
REMARK   50  A    between atoms: _116  and  _119
REMARK   51  A    between atoms: _119  and  _120
REMARK   52  A    between atoms: _123  and  _125
REMARK   53  A    between atoms: _125  and  _126
REMARK   54  A    between atoms: _125  and  _128
REMARK   55  A    between atoms: _128  and  _129
REMARK   56  A    between atoms: _129  and  _130
REMARK   57  A    between atoms: _130  and  _131
REMARK   58  A    between atoms: _131  and  _132
REMARK   59  A    between atoms: _136  and  _138
REMARK   60  A    between atoms: _138  and  _139
REMARK   61  A    between atoms: _138  and  _141
REMARK   62  A    between atoms: _141  and  _142
REMARK   63  A    between atoms: _142  and  _143
REMARK   64  A    between atoms: _143  and  _144
REMARK   65  A    between atoms: _144  and  _145
REMARK   66  A    between atoms: _149  and  _151
REMARK   67  A    between atoms: _151  and  _152
REMARK   68  A    between atoms: _151  and  _154
REMARK   69  A    between atoms: _154  and  _155
REMARK   70  A    between atoms: _160  and  _162
REMARK   71  A    between atoms: _162  and  _163
REMARK   72  A    between atoms: _162  and  _165
REMARK   73  A    between atoms: _165  and  _166
REMARK   74  A    between atoms: _171  and  _173
REMARK   75  A    between atoms: _173  and  _174
REMARK   76  A    between atoms: _177  and  _179
REMARK   77  A    between atoms: _179  and  _180
REMARK   78  A    between atoms: _179  and  _182
REMARK   79  A    between atoms: _182  and  _183
REMARK   80  A    between atoms: _188  and  _190
REMARK   81  A    between atoms: _190  and  _191
REMARK   82  A    between atoms: _194  and  _196
REMARK   83  A    between atoms: _196  and  _197
REMARK   84  A    between atoms: _200  and  _202
REMARK   85  A    between atoms: _202  and  _203
REMARK   86  A    between atoms: _202  and  _205
REMARK   87  A    between atoms: _205  and  _206
REMARK   88  A    between atoms: _211  and  _213
REMARK   89  A    between atoms: _213  and  _214
REMARK   90  A    between atoms: _213  and  _216
REMARK   91  A    between atoms: _216  and  _217
REMARK   92  A    between atoms: _220  and  _222
REMARK   93  A    between atoms: _222  and  _223
REMARK   94  A    between atoms: _225  and  _227
REMARK   95  A    between atoms: _227  and  _228
REMARK   96  A    between atoms: _227  and  _230
REMARK   97  A    between atoms: _230  and  _231
REMARK   98  A    between atoms: _231  and  _232
REMARK   99  A    between atoms: _235  and  _237
REMARK  100  A    between atoms: _237  and  _238
REMARK  101  A    between atoms: _237  and  _240
REMARK  102  A    between atoms: _240  and  _241
REMARK  103  A    between atoms: _244  and  _246
REMARK  104  A    between atoms: _246  and  _247
REMARK  105  A    between atoms: _246  and  _249
REMARK  106  A    between atoms: _249  and  _250
REMARK  107  A    between atoms: _252  and  _254
REMARK  108  A    between atoms: _254  and  _255
REMARK  109  A    between atoms: _254  and  _257
REMARK  110  A    between atoms: _257  and  _258
REMARK  111  A    between atoms: _261  and  _263
REMARK  112  A    between atoms: _263  and  _264
REMARK  113  A    between atoms: _263  and  _266
REMARK  114  A    between atoms: _266  and  _267
REMARK  115  A    between atoms: _267  and  _268
REMARK  116  A    between atoms: _270  and  _272
REMARK  117  A    between atoms: _272  and  _273
REMARK  118  A    between atoms: _276  and  _278
REMARK  119  A    between atoms: _278  and  _279
REMARK  120  A    between atoms: _282  and  _284
REMARK  121  A    between atoms: _284  and  _285
REMARK  122  A    between atoms: _284  and  _287
REMARK  123  A    between atoms: _287  and  _288
REMARK  124  A    between atoms: _291  and  _293
REMARK  125  A    between atoms: _293  and  _294
REMARK  126  A    between atoms: _297  and  _299
REMARK  127  A    between atoms: _299  and  _300
REMARK  128  A    between atoms: _303  and  _305
REMARK  129  A    between atoms: _305  and  _306
REMARK  130  A    between atoms: _308  and  _310
REMARK  131  A    between atoms: _310  and  _311
REMARK  132  A    between atoms: _310  and  _313
REMARK  133  A    between atoms: _313  and  _314
REMARK  134  A    between atoms: _319  and  _321
REMARK  135  A    between atoms: _321  and  _322
REMARK  136  A    between atoms: _321  and  _324
REMARK  137  A    between atoms: _324  and  _325
REMARK  138  A    between atoms: _328  and  _330
REMARK  139  A    between atoms: _330  and  _331
REMARK  140  A    between atoms: _330  and  _333
REMARK  141  A    between atoms: _336  and  _338
REMARK  142  A    between atoms: _338  and  _339
REMARK  143  A    between atoms: _338  and  _341
REMARK  144  A    between atoms: _341  and  _342
REMARK  145  A    between atoms: _342  and  _343
REMARK  146  A    between atoms: _343  and  _344
REMARK  147  A    between atoms: _344  and  _345
REMARK  148  A    between atoms: _349  and  _351
REMARK  149  A    between atoms: _351  and  _352
REMARK  150  A    between atoms: _351  and  _354
REMARK  151  A    between atoms: _354  and  _355
REMARK  152  A    between atoms: _357  and  _359
REMARK  153  A    between atoms: _359  and  _360
REMARK  154  A    between atoms: _359  and  _362
REMARK  155  A    between atoms: _362  and  _363
REMARK  156  A    between atoms: _368  and  _369
REMARK  157  A    between atoms: _371  and  _373
REMARK  158  A    between atoms: _373  and  _374
REMARK  159  A    between atoms: _373  and  _376
REMARK  160  A    between atoms: _376  and  _377
REMARK  161  A    between atoms: _377  and  _378
REMARK  162  A    between atoms: _381  and  _383
REMARK  163  A    between atoms: _383  and  _384
REMARK  164  A    between atoms: _383  and  _386
REMARK  165  A    between atoms: _386  and  _387
REMARK  166  A    between atoms: _392  and  _394
REMARK  167  A    between atoms: _394  and  _395
REMARK  168  A    between atoms: _394  and  _397
REMARK  169  A    between atoms: _397  and  _398
REMARK  170  A    between atoms: _401  and  _403
REMARK  171  A    between atoms: _403  and  _404
REMARK  172  A    between atoms: _403  and  _406
REMARK  173  A    between atoms: _406  and  _407
REMARK  174  A    between atoms: _407  and  _408
REMARK  175  A    between atoms: _408  and  _409
REMARK  176  A    between atoms: _418  and  _420
REMARK  177  A    between atoms: _420  and  _421
REMARK  178  A    between atoms: _423  and  _425
REMARK  179  A    between atoms: _425  and  _426
REMARK  180  A    between atoms: _425  and  _428
REMARK  181  A    between atoms: _428  and  _429
REMARK  182  A    between atoms: _429  and  _430
REMARK  183  A    between atoms: _432  and  _434
REMARK  184  A    between atoms: _434  and  _435
REMARK  185  A    between atoms: _434  and  _437
REMARK  186  A    between atoms: _437  and  _438
REMARK  187  A    between atoms: _438  and  _439
REMARK  188  A    between atoms: _441  and  _443
REMARK  189  A    between atoms: _443  and  _444
REMARK  190  A    between atoms: _443  and  _446
REMARK  191  A    between atoms: _446  and  _447
REMARK  192  A    between atoms: _452  and  _454
REMARK  193  A    between atoms: _454  and  _455
REMARK  194  A    between atoms: _454  and  _457
REMARK  195  A    between atoms: _457  and  _458
REMARK  196  A    between atoms: _460  and  _462
REMARK  197  A    between atoms: _462  and  _463
REMARK  198  A    between atoms: _466  and  _468
REMARK  199  A    between atoms: _468  and  _469
REMARK  200  A    between atoms: _468  and  _471
REMARK  201  A    between atoms: _474  and  _476
REMARK  202  A    between atoms: _476  and  _477
REMARK  203  A    between atoms: _476  and  _479
REMARK  204  A    between atoms: _479  and  _480
REMARK  205  A    between atoms: _482  and  _484
REMARK  206  A    between atoms: _484  and  _485
REMARK  207  A    between atoms: _487  and  _489
REMARK  208  A    between atoms: _489  and  _490
REMARK  209  A    between atoms: _489  and  _492
REMARK  210  A    between atoms: _492  and  _493
REMARK  211  A    between atoms: _498  and  _500
REMARK  212  A    between atoms: _500  and  _501
REMARK  213  A    between atoms: _500  and  _503
REMARK  214  A    between atoms: _503  and  _504
REMARK  215  A    between atoms: _509  and  _510
REMARK  216  A    between atoms: _512  and  _514
REMARK  217  A    between atoms: _514  and  _515
REMARK  218  A    between atoms: _514  and  _517
REMARK  219  A    between atoms: _519  and  _521
REMARK  220  A    between atoms: _521  and  _522
REMARK  221  A    between atoms: _521  and  _524
REMARK  222  A    between atoms: _524  and  _525
REMARK  223  A    between atoms: _528  and  _530
REMARK  224  A    between atoms: _530  and  _531
REMARK  225  A    between atoms: _530  and  _533
REMARK  226  A    between atoms: _533  and  _534
REMARK  227  A    between atoms: _537  and  _539
REMARK  228  A    between atoms: _539  and  _540
REMARK  229  A    between atoms: _539  and  _542
REMARK  230  A    between atoms: _542  and  _543
REMARK  231  A    between atoms: _543  and  _544
REMARK  232  A    between atoms: _544  and  _545
REMARK  233  A    between atoms: _545  and  _546
REMARK  234  A    between atoms: _550  and  _552
REMARK  235  A    between atoms: _552  and  _553
REMARK  236  A    between atoms: _552  and  _555
REMARK  237  A    between atoms: _555  and  _556
REMARK  238  A    between atoms: _556  and  _557
REMARK  239  A    between atoms: _557  and  _558
REMARK  240  A    between atoms: _558  and  _559
REMARK  241  A    between atoms: _563  and  _565
REMARK  242  A    between atoms: _565  and  _566
REMARK  243  A    between atoms: _565  and  _568
REMARK  244  A    between atoms: _568  and  _569
REMARK  245  A    between atoms: _569  and  _570
REMARK  246  A    between atoms: _570  and  _571
REMARK  247  A    between atoms: _580  and  _582
REMARK  248  A    between atoms: _582  and  _583
REMARK  249  A    between atoms: _582  and  _585
REMARK  250  A    between atoms: _585  and  _586
REMARK  251  A    between atoms: _589  and  _591
REMARK  252  A    between atoms: _591  and  _592
REMARK  253  A    between atoms: _595  and  _597
REMARK  254  A    between atoms: _597  and  _598
REMARK  255  A    between atoms: _597  and  _600
REMARK  256  A    between atoms: _600  and  _601
REMARK  257  A    between atoms: _601  and  _602
REMARK                            x       y       z     vdW  Elec       q    Type
REMARK                         _______ _______ _______ _____ _____    ______ ____
ROOT
ATOM      1  C   LYS A   1      18.622  -2.595  34.517  0.00  0.00    +0.238 C 
ATOM      2  N   ASN A   2      19.594  -1.713  34.303  0.00  0.00    -0.298 N 
ATOM      3  H   ASN A   2      20.436  -1.730  34.913  0.00  0.00    +0.150 HD
ATOM      4  O   LYS A   1      17.679  -2.747  33.749  0.00  0.00    -0.274 OA
ENDROOT
BRANCH   1   5
ATOM      5  CA  LYS A   1      18.728  -3.427  35.794  0.00  0.00    +0.145 C 
BRANCH   5   6
ATOM      6  N   LYS A   1      19.858  -4.351  35.695  0.00  0.00    -0.238 NA
ATOM      7  H   LYS A   1      20.803  -4.011  35.966  0.00  0.00    +0.142 HD
ENDBRANCH   5   6
BRANCH   5   8
ATOM      8  CB  LYS A   1      18.890  -2.496  37.004  0.00  0.00    +0.026 C 
BRANCH   8   9
ATOM      9  CG  LYS A   1      17.908  -1.318  37.084  0.00  0.00    -0.000 C 
BRANCH   9  10
ATOM     10  CD  LYS A   1      18.334  -0.340  38.162  0.00  0.00    -0.024 C 
BRANCH  10  11
ATOM     11  CE  LYS A   1      17.406   0.858  38.254  0.00  0.00    -0.086 C 
BRANCH  11  12
ATOM     12  NZ  LYS A   1      16.024   0.489  38.657  0.00  0.00    +0.380 N 
ATOM     13  HZ1 LYS A   1      16.047   0.033  39.591  0.00  0.00    -0.089 HD
ATOM     14  HZ2 LYS A   1      15.437   1.346  38.703  0.00  0.00    -0.089 HD
ATOM     15  HZ3 LYS A   1      15.624  -0.169  37.958  0.00  0.00    -0.089 HD
ENDBRANCH  11  12
ENDBRANCH  10  11
ENDBRANCH   9  10
ENDBRANCH   8   9
ENDBRANCH   5   8
ENDBRANCH   1   5
BRANCH   2  16
ATOM     16  CA  ASN A   2      19.511  -0.720  33.232  0.00  0.00    +0.146 C 
BRANCH  16  17
ATOM     17  C   ASN A   2      19.657  -1.237  31.804  0.00  0.00    +0.227 C 
ATOM     18  O   ASN A   2      19.166  -0.594  30.893  0.00  0.00    -0.286 OA
ENDBRANCH  16  17
BRANCH  16  19
ATOM     19  CB  ASN A   2      20.508   0.421  33.476  0.00  0.00    +0.112 C 
BRANCH  19  20
ATOM     20  CG  ASN A   2      20.070   1.338  34.593  0.00  0.00    +0.222 C 
ATOM     21  ND2 ASN A   2      20.985   2.182  35.064  0.00  0.00    -0.329 N 
ATOM     22 HD21 ASN A   2      20.741   2.837  35.834  0.00  0.00    +0.145 HD
ATOM     23 HD22 ASN A   2      21.944   2.186  34.662  0.00  0.00    +0.145 HD
ATOM     24  OD1 ASN A   2      18.918   1.290  35.032  0.00  0.00    -0.275 OA
ENDBRANCH  19  20
ENDBRANCH  16  19
ENDBRANCH   2  16
TORSDOF 11
REMARK  Name = ../refined-set-2016/3cd5/3cd5_pocket.pdb
REMARK  257 active torsions:
REMARK  status: ('A' for Active; 'I' for Inactive)
REMARK    1  A    between atoms: _1  and  _3
REMARK    2  A    between atoms: _3  and  _4
REMARK    3  A    between atoms: _3  and  _6
REMARK    4  A    between atoms: _6  and  _7
REMARK    5  A    between atoms: _7  and  _8
REMARK    6  A    between atoms: _11  and  _13
REMARK    7  A    between atoms: _13  and  _14
REMARK    8  A    between atoms: _16  and  _18
REMARK    9  A    between atoms: _18  and  _19
REMARK   10  A    between atoms: _18  and  _21
REMARK   11  A    between atoms: _23  and  _25
REMARK   12  A    between atoms: _25  and  _26
REMARK   13  A    between atoms: _25  and  _28
REMARK   14  A    between atoms: _28  and  _29
REMARK   15  A    between atoms: _32  and  _34
REMARK   16  A    between atoms: _34  and  _35
REMARK   17  A    between atoms: _34  and  _37
REMARK   18  A    between atoms: _40  and  _42
REMARK   19  A    between atoms: _42  and  _43
REMARK   20  A    between atoms: _46  and  _48
REMARK   21  A    between atoms: _48  and  _49
REMARK   22  A    between atoms: _48  and  _51
REMARK   23  A    between atoms: _51  and  _52
REMARK   24  A    between atoms: _54  and  _56
REMARK   25  A    between atoms: _56  and  _57
REMARK   26  A    between atoms: _56  and  _59
REMARK   27  A    between atoms: _59  and  _60
REMARK   28  A    between atoms: _63  and  _65
REMARK   29  A    between atoms: _65  and  _66
REMARK   30  A    between atoms: _65  and  _68
REMARK   31  A    between atoms: _68  and  _69
REMARK   32  A    between atoms: _74  and  _76
REMARK   33  A    between atoms: _76  and  _77
REMARK   34  A    between atoms: _76  and  _79
REMARK   35  A    between atoms: _79  and  _80
REMARK   36  A    between atoms: _80  and  _81
REMARK   37  A    between atoms: _81  and  _82
REMARK   38  A    between atoms: _91  and  _93
REMARK   39  A    between atoms: _93  and  _94
REMARK   40  A    between atoms: _96  and  _98
REMARK   41  A    between atoms: _98  and  _99
REMARK   42  A    between atoms: _98  and  _101
REMARK   43  A    between atoms: _101  and  _102
REMARK   44  A    between atoms: _102  and  _103
REMARK   45  A    between atoms: _106  and  _108
REMARK   46  A    between atoms: _108  and  _109
REMARK   47  A    between atoms: _108  and  _111
REMARK   48  A    between atoms: _114  and  _116
REMARK   49  A    between atoms: _116  and  _117
REMARK   50  A    between atoms: _116  and  _119
REMARK   51  A    between atoms: _119  and  _120
REMARK   52  A    between atoms: _123  and  _125
REMARK   53  A    between atoms: _125  and  _126
REMARK   54  A    between atoms: _125  and  _128
REMARK   55  A    between atoms: _128  and  _129
REMARK   56  A    between atoms: _129  and  _130
REMARK   57  A    between atoms: _130  and  _131
REMARK   58  A    between atoms: _131  and  _132
REMARK   59  A    between atoms: _136  and  _138
REMARK   60  A    between atoms: _138  and  _139
REMARK   61  A    between atoms: _138  and  _141
REMARK   62  A    between atoms: _141  and  _142
REMARK   63  A    between atoms: _142  and  _143
REMARK   64  A    between atoms: _143  and  _144
REMARK   65  A    between atoms: _144  and  _145
REMARK   66  A    between atoms: _149  and  _151
REMARK   67  A    between atoms: _151  and  _152
REMARK   68  A    between atoms: _151  and  _154
REMARK   69  A    between atoms: _154  and  _155
REMARK   70  A    between atoms: _160  and  _162
REMARK   71  A    between atoms: _162  and  _163
REMARK   72  A    between atoms: _162  and  _165
REMARK   73  A    between atoms: _165  and  _166
REMARK   74  A    between atoms: _171  and  _173
REMARK   75  A    between atoms: _173  and  _174
REMARK   76  A    between atoms: _177  and  _179
REMARK   77  A    between atoms: _179  and  _180
REMARK   78  A    between atoms: _179  and  _182
REMARK   79  A    between atoms: _182  and  _183
REMARK   80  A    between atoms: _188  and  _190
REMARK   81  A    between atoms: _190  and  _191
REMARK   82  A    between atoms: _194  and  _196
REMARK   83  A    between atoms: _196  and  _197
REMARK   84  A    between atoms: _200  and  _202
REMARK   85  A    between atoms: _202  and  _203
REMARK   86  A    between atoms: _202  and  _205
REMARK   87  A    between atoms: _205  and  _206
REMARK   88  A    between atoms: _211  and  _213
REMARK   89  A    between atoms: _213  and  _214
REMARK   90  A    between atoms: _213  and  _216
REMARK   91  A    between atoms: _216  and  _217
REMARK   92  A    between atoms: _220  and  _222
REMARK   93  A    between atoms: _222  and  _223
REMARK   94  A    between atoms: _225  and  _227
REMARK   95  A    between atoms: _227  and  _228
REMARK   96  A    between atoms: _227  and  _230
REMARK   97  A    between atoms: _230  and  _231
REMARK   98  A    between atoms: _231  and  _232
REMARK   99  A    between atoms: _235  and  _237
REMARK  100  A    between atoms: _237  and  _238
REMARK  101  A    between atoms: _237  and  _240
REMARK  102  A    between atoms: _240  and  _241
REMARK  103  A    between atoms: _244  and  _246
REMARK  104  A    between atoms: _246  and  _247
REMARK  105  A    between atoms: _246  and  _249
REMARK  106  A    between atoms: _249  and  _250
REMARK  107  A    between atoms: _252  and  _254
REMARK  108  A    between atoms: _254  and  _255
REMARK  109  A    between atoms: _254  and  _257
REMARK  110  A    between atoms: _257  and  _258
REMARK  111  A    between atoms: _261  and  _263
REMARK  112  A    between atoms: _263  and  _264
REMARK  113  A    between atoms: _263  and  _266
REMARK  114  A    between atoms: _266  and  _267
REMARK  115  A    between atoms: _267  and  _268
REMARK  116  A    between atoms: _270  and  _272
REMARK  117  A    between atoms: _272  and  _273
REMARK  118  A    between atoms: _276  and  _278
REMARK  119  A    between atoms: _278  and  _279
REMARK  120  A    between atoms: _282  and  _284
REMARK  121  A    between atoms: _284  and  _285
REMARK  122  A    between atoms: _284  and  _287
REMARK  123  A    between atoms: _287  and  _288
REMARK  124  A    between atoms: _291  and  _293
REMARK  125  A    between atoms: _293  and  _294
REMARK  126  A    between atoms: _297  and  _299
REMARK  127  A    between atoms: _299  and  _300
REMARK  128  A    between atoms: _303  and  _305
REMARK  129  A    between atoms: _305  and  _306
REMARK  130  A    between atoms: _308  and  _310
REMARK  131  A    between atoms: _310  and  _311
REMARK  132  A    between atoms: _310  and  _313
REMARK  133  A    between atoms: _313  and  _314
REMARK  134  A    between atoms: _319  and  _321
REMARK  135  A    between atoms: _321  and  _322
REMARK  136  A    between atoms: _321  and  _324
REMARK  137  A    between atoms: _324  and  _325
REMARK  138  A    between atoms: _328  and  _330
REMARK  139  A    between atoms: _330  and  _331
REMARK  140  A    between atoms: _330  and  _333
REMARK  141  A    between atoms: _336  and  _338
REMARK  142  A    between atoms: _338  and  _339
REMARK  143  A    between atoms: _338  and  _341
REMARK  144  A    between atoms: _341  and  _342
REMARK  145  A    between atoms: _342  and  _343
REMARK  146  A    between atoms: _343  and  _344
REMARK  147  A    between atoms: _344  and  _345
REMARK  148  A    between atoms: _349  and  _351
REMARK  149  A    between atoms: _351  and  _352
REMARK  150  A    between atoms: _351  and  _354
REMARK  151  A    between atoms: _354  and  _355
REMARK  152  A    between atoms: _357  and  _359
REMARK  153  A    between atoms: _359  and  _360
REMARK  154  A    between atoms: _359  and  _362
REMARK  155  A    between atoms: _362  and  _363
REMARK  156  A    between atoms: _368  and  _369
REMARK  157  A    between atoms: _371  and  _373
REMARK  158  A    between atoms: _373  and  _374
REMARK  159  A    between atoms: _373  and  _376
REMARK  160  A    between atoms: _376  and  _377
REMARK  161  A    between atoms: _377  and  _378
REMARK  162  A    between atoms: _381  and  _383
REMARK  163  A    between atoms: _383  and  _384
REMARK  164  A    between atoms: _383  and  _386
REMARK  165  A    between atoms: _386  and  _387
REMARK  166  A    between atoms: _392  and  _394
REMARK  167  A    between atoms: _394  and  _395
REMARK  168  A    between atoms: _394  and  _397
REMARK  169  A    between atoms: _397  and  _398
REMARK  170  A    between atoms: _401  and  _403
REMARK  171  A    between atoms: _403  and  _404
REMARK  172  A    between atoms: _403  and  _406
REMARK  173  A    between atoms: _406  and  _407
REMARK  174  A    between atoms: _407  and  _408
REMARK  175  A    between atoms: _408  and  _409
REMARK  176  A    between atoms: _418  and  _420
REMARK  177  A    between atoms: _420  and  _421
REMARK  178  A    between atoms: _423  and  _425
REMARK  179  A    between atoms: _425  and  _426
REMARK  180  A    between atoms: _425  and  _428
REMARK  181  A    between atoms: _428  and  _429
REMARK  182  A    between atoms: _429  and  _430
REMARK  183  A    between atoms: _432  and  _434
REMARK  184  A    between atoms: _434  and  _435
REMARK  185  A    between atoms: _434  and  _437
REMARK  186  A    between atoms: _437  and  _438
REMARK  187  A    between atoms: _438  and  _439
REMARK  188  A    between atoms: _441  and  _443
REMARK  189  A    between atoms: _443  and  _444
REMARK  190  A    between atoms: _443  and  _446
REMARK  191  A    between atoms: _446  and  _447
REMARK  192  A    between atoms: _452  and  _454
REMARK  193  A    between atoms: _454  and  _455
REMARK  194  A    between atoms: _454  and  _457
REMARK  195  A    between atoms: _457  and  _458
REMARK  196  A    between atoms: _460  and  _462
REMARK  197  A    between atoms: _462  and  _463
REMARK  198  A    between atoms: _466  and  _468
REMARK  199  A    between atoms: _468  and  _469
REMARK  200  A    between atoms: _468  and  _471
REMARK  201  A    between atoms: _474  and  _476
REMARK  202  A    between atoms: _476  and  _477
REMARK  203  A    between atoms: _476  and  _479
REMARK  204  A    between atoms: _479  and  _480
REMARK  205  A    between atoms: _482  and  _484
REMARK  206  A    between atoms: _484  and  _485
REMARK  207  A    between atoms: _487  and  _489
REMARK  208  A    between atoms: _489  and  _490
REMARK  209  A    between atoms: _489  and  _492
REMARK  210  A    between atoms: _492  and  _493
REMARK  211  A    between atoms: _498  and  _500
REMARK  212  A    between atoms: _500  and  _501
REMARK  213  A    between atoms: _500  and  _503
REMARK  214  A    between atoms: _503  and  _504
REMARK  215  A    between atoms: _509  and  _510
REMARK  216  A    between atoms: _512  and  _514
REMARK  217  A    between atoms: _514  and  _515
REMARK  218  A    between atoms: _514  and  _517
REMARK  219  A    between atoms: _519  and  _521
REMARK  220  A    between atoms: _521  and  _522
REMARK  221  A    between atoms: _521  and  _524
REMARK  222  A    between atoms: _524  and  _525
REMARK  223  A    between atoms: _528  and  _530
REMARK  224  A    between atoms: _530  and  _531
REMARK  225  A    between atoms: _530  and  _533
REMARK  226  A    between atoms: _533  and  _534
REMARK  227  A    between atoms: _537  and  _539
REMARK  228  A    between atoms: _539  and  _540
REMARK  229  A    between atoms: _539  and  _542
REMARK  230  A    between atoms: _542  and  _543
REMARK  231  A    between atoms: _543  and  _544
REMARK  232  A    between atoms: _544  and  _545
REMARK  233  A    between atoms: _545  and  _546
REMARK  234  A    between atoms: _550  and  _552
REMARK  235  A    between atoms: _552  and  _553
REMARK  236  A    between atoms: _552  and  _555
REMARK  237  A    between atoms: _555  and  _556
REMARK  238  A    between atoms: _556  and  _557
REMARK  239  A    between atoms: _557  and  _558
REMARK  240  A    between atoms: _558  and  _559
REMARK  241  A    between atoms: _563  and  _565
REMARK  242  A    between atoms: _565  and  _566
REMARK  243  A    between atoms: _565  and  _568
REMARK  244  A    between atoms: _568  and  _569
REMARK  245  A    between atoms: _569  and  _570
REMARK  246  A    between atoms: _570  and  _571
REMARK  247  A    between atoms: _580  and  _582
REMARK  248  A    between atoms: _582  and  _583
REMARK  249  A    between atoms: _582  and  _585
REMARK  250  A    between atoms: _585  and  _586
REMARK  251  A    between atoms: _589  and  _591
REMARK  252  A    between atoms: _591  and  _592
REMARK  253  A    between atoms: _595  and  _597
REMARK  254  A    between atoms: _597  and  _598
REMARK  255  A    between atoms: _597  and  _600
REMARK  256  A    between atoms: _600  and  _601
REMARK  257  A    between atoms: _601  and  _602
REMARK                            x       y       z     vdW  Elec       q    Type
REMARK                         _______ _______ _______ _____ _____    ______ ____
ROOT
ATOM      1  C   HIS A   3      16.200   9.154  36.267  0.00  0.00    +0.241 C 
ATOM      2  O   HIS A   3      16.150  10.152  36.979  0.00  0.00    -0.273 OA
ATOM      3  N   ALA A   4      16.636   9.188  35.018  0.00  0.00    -0.297 N 
ATOM      4  H   ALA A   4      16.715   8.299  34.484  0.00  0.00    +0.150 HD
ENDROOT
BRANCH   3   5
ATOM      5  CA  ALA A   4      17.010  10.446  34.369  0.00  0.00    +0.149 C 
ATOM      6  CB  ALA A   4      17.671  10.178  33.017  0.00  0.00    +0.031 C 
BRANCH   5   7
ATOM      7  C   ALA A   4      15.804  11.363  34.196  0.00  0.00    +0.241 C 
ATOM      8  N   ALA A   5      14.604  10.784  34.188  0.00  0.00    -0.297 N 
ATOM      9  H   ALA A   5      14.548   9.748  34.262  0.00  0.00    +0.150 HD
ATOM     10  O   ALA A   4      15.963  12.568  34.072  0.00  0.00    -0.273 OA
BRANCH   8  11
ATOM     11  CA  ALA A   5      13.365  11.547  34.079  0.00  0.00    +0.149 C 
ATOM     12  CB  ALA A   5      12.208  10.626  33.798  0.00  0.00    +0.031 C 
BRANCH  11  13
ATOM     13  C   ALA A   5      13.087  12.379  35.336  0.00  0.00    +0.241 C 
ATOM     14  N   ASN A   6      13.547  11.911  36.498  0.00  0.00    -0.297 N 
ATOM     15  H   ASN A   6      13.969  10.961  36.531  0.00  0.00    +0.150 HD
ATOM     16  O   ALA A   5      12.448  13.427  35.248  0.00  0.00    -0.273 OA
BRANCH  14  17
ATOM     17  CA  ASN A   6      13.472  12.702  37.725  0.00  0.00    +0.158 C 
BRANCH  17  18
ATOM     18  C   ASN A   6      14.277  13.994  37.603  0.00  0.00    +0.241 C 
ATOM     19  O   ASN A   6      13.784  15.071  37.958  0.00  0.00    -0.273 OA
ATOM     20  N   ILE A   7      15.505  13.881  37.092  0.00  0.00    -0.298 N 
ATOM     21  H   ILE A   7      15.821  12.952  36.747  0.00  0.00    +0.150 HD
BRANCH  20  22
ATOM     22  CA  ILE A   7      16.424  15.019  37.000  0.00  0.00    +0.137 C 
BRANCH  22  23
ATOM     23  C   ILE A   7      16.078  15.952  35.841  0.00  0.00    +0.227 C 
ATOM     24  O   ILE A   7      16.173  17.172  35.970  0.00  0.00    -0.286 OA
ENDBRANCH  22  23
BRANCH  22  25
ATOM     25  CB  ILE A   7      17.883  14.536  36.872  0.00  0.00    +0.026 C 
ATOM     26  CG2 ILE A   7      18.786  15.664  36.371  0.00  0.00    +0.002 C 
BRANCH  25  27
ATOM     27  CG1 ILE A   7      18.408  14.049  38.225  0.00  0.00    +0.002 C 
ATOM     28  CD1 ILE A   7      17.767  12.773  38.729  0.00  0.00    +0.000 C 
ENDBRANCH  25  27
ENDBRANCH  22  25
ENDBRANCH  20  22
ENDBRANCH  17  18
BRANCH  17  29
ATOM     29  CB  ASN A   6      13.976  11.907  38.942  0.00  0.00    +0.114 C 
BRANCH  29  30
ATOM     30  CG  ASN A   6      12.906  11.013  39.559  0.00  0.00    +0.222 C 
ATOM     31  ND2 ASN A   6      13.344  10.039  40.350  0.00  0.00    -0.329 N 
ATOM     32 HD21 ASN A   6      12.666   9.397  40.808  0.00  0.00    +0.145 HD
ATOM     33 HD22 ASN A   6      14.364   9.919  40.511  0.00  0.00    +0.145 HD
ATOM     34  OD1 ASN A   6      11.706  11.198  39.336  0.00  0.00    -0.275 OA
ENDBRANCH  29  30
ENDBRANCH  17  29
ENDBRANCH  14  17
ENDBRANCH  11  13
ENDBRANCH   8  11
ENDBRANCH   5   7
ENDBRANCH   3   5
BRANCH   1  35
ATOM     35  CA  HIS A   3      15.729   7.797  36.780  0.00  0.00    +0.155 C 
BRANCH  35  38
ATOM     36  C   ALA A   2      16.357   5.452  36.572  0.00  0.00    +0.241 C 
ATOM     37  O   ALA A   2      15.192   5.097  36.713  0.00  0.00    -0.273 OA
ATOM     38  N   HIS A   3      16.715   6.733  36.566  0.00  0.00    -0.297 N 
ATOM     39  H   HIS A   3      17.712   6.984  36.407  0.00  0.00    +0.150 HD
BRANCH  36  40
ATOM     40  CA  ALA A   2      17.460   4.406  36.396  0.00  0.00    +0.149 C 
ATOM     41  CB  ALA A   2      18.442   4.461  37.558  0.00  0.00    +0.031 C 
BRANCH  40  43
ATOM     42  C   ASN A   1      17.726   3.947  34.008  0.00  0.00    +0.239 C 
ATOM     43  N   ALA A   2      18.165   4.534  35.119  0.00  0.00    -0.297 N 
ATOM     44  H   ALA A   2      19.036   5.101  35.079  0.00  0.00    +0.150 HD
ATOM     45  O   ASN A   1      16.676   3.302  33.969  0.00  0.00    -0.274 OA
BRANCH  42  46
ATOM     46  CA  ASN A   1      18.590   4.120  32.751  0.00  0.00    +0.154 C 
BRANCH  46  47
ATOM     47  N   ASN A   1      18.103   3.297  31.652  0.00  0.00    -0.238 NA
ATOM     48  H   ASN A   1      17.094   3.044  31.636  0.00  0.00    +0.142 HD
ENDBRANCH  46  47
BRANCH  46  49
ATOM     49  CB  ASN A   1      18.610   5.586  32.320  0.00  0.00    +0.111 C 
BRANCH  49  50
ATOM     50  CG  ASN A   1      17.218   6.129  32.022  0.00  0.00    +0.221 C 
ATOM     51  OD1 ASN A   1      16.545   6.637  32.914  0.00  0.00    -0.275 OA
ATOM     52  ND2 ASN A   1      16.782   6.017  30.772  0.00  0.00    -0.329 N 
ATOM     53 HD21 ASN A   1      15.836   6.367  30.518  0.00  0.00    +0.145 HD
ATOM     54 HD22 ASN A   1      17.386   5.579  30.048  0.00  0.00    +0.145 HD
ENDBRANCH  49  50
ENDBRANCH  46  49
ENDBRANCH  42  46
ENDBRANCH  40  43
ENDBRANCH  36  40
ENDBRANCH  35  38
BRANCH  35  55
ATOM     55  CB  HIS A   3      15.330   7.888  38.267  0.00  0.00    +0.076 C 
BRANCH  55  56
ATOM     56  CG  HIS A   3      16.400   8.446  39.154  0.00  0.00    +0.082 A 
ATOM     57  ND1 HIS A   3      16.202   9.555  39.947  0.00  0.00    -0.227 NA
ATOM     58  CE1 HIS A   3      17.308   9.820  40.618  0.00  0.00    +0.199 A 
ATOM     59  NE2 HIS A   3      18.216   8.918  40.293  0.00  0.00    -0.221 NA
ATOM     60  CD2 HIS A   3      17.677   8.052  39.373  0.00  0.00    +0.115 A 
ENDBRANCH  55  56
ENDBRANCH  35  55
ENDBRANCH   1  35
TORSDOF 22
REMARK  Name = ../refined-set-2016/3cd5/3cd5_pocket.pdb
REMARK  257 active torsions:
REMARK  status: ('A' for Active; 'I' for Inactive)
REMARK    1  A    between atoms: _1  and  _3
REMARK    2  A    between atoms: _3  and  _4
REMARK    3  A    between atoms: _3  and  _6
REMARK    4  A    between atoms: _6  and  _7
REMARK    5  A    between atoms: _7  and  _8
REMARK    6  A    between atoms: _11  and  _13
REMARK    7  A    between atoms: _13  and  _14
REMARK    8  A    between atoms: _16  and  _18
REMARK    9  A    between atoms: _18  and  _19
REMARK   10  A    between atoms: _18  and  _21
REMARK   11  A    between atoms: _23  and  _25
REMARK   12  A    between atoms: _25  and  _26
REMARK   13  A    between atoms: _25  and  _28
REMARK   14  A    between atoms: _28  and  _29
REMARK   15  A    between atoms: _32  and  _34
REMARK   16  A    between atoms: _34  and  _35
REMARK   17  A    between atoms: _34  and  _37
REMARK   18  A    between atoms: _40  and  _42
REMARK   19  A    between atoms: _42  and  _43
REMARK   20  A    between atoms: _46  and  _48
REMARK   21  A    between atoms: _48  and  _49
REMARK   22  A    between atoms: _48  and  _51
REMARK   23  A    between atoms: _51  and  _52
REMARK   24  A    between atoms: _54  and  _56
REMARK   25  A    between atoms: _56  and  _57
REMARK   26  A    between atoms: _56  and  _59
REMARK   27  A    between atoms: _59  and  _60
REMARK   28  A    between atoms: _63  and  _65
REMARK   29  A    between atoms: _65  and  _66
REMARK   30  A    between atoms: _65  and  _68
REMARK   31  A    between atoms: _68  and  _69
REMARK   32  A    between atoms: _74  and  _76
REMARK   33  A    between atoms: _76  and  _77
REMARK   34  A    between atoms: _76  and  _79
REMARK   35  A    between atoms: _79  and  _80
REMARK   36  A    between atoms: _80  and  _81
REMARK   37  A    between atoms: _81  and  _82
REMARK   38  A    between atoms: _91  and  _93
REMARK   39  A    between atoms: _93  and  _94
REMARK   40  A    between atoms: _96  and  _98
REMARK   41  A    between atoms: _98  and  _99
REMARK   42  A    between atoms: _98  and  _101
REMARK   43  A    between atoms: _101  and  _102
REMARK   44  A    between atoms: _102  and  _103
REMARK   45  A    between atoms: _106  and  _108
REMARK   46  A    between atoms: _108  and  _109
REMARK   47  A    between atoms: _108  and  _111
REMARK   48  A    between atoms: _114  and  _116
REMARK   49  A    between atoms: _116  and  _117
REMARK   50  A    between atoms: _116  and  _119
REMARK   51  A    between atoms: _119  and  _120
REMARK   52  A    between atoms: _123  and  _125
REMARK   53  A    between atoms: _125  and  _126
REMARK   54  A    between atoms: _125  and  _128
REMARK   55  A    between atoms: _128  and  _129
REMARK   56  A    between atoms: _129  and  _130
REMARK   57  A    between atoms: _130  and  _131
REMARK   58  A    between atoms: _131  and  _132
REMARK   59  A    between atoms: _136  and  _138
REMARK   60  A    between atoms: _138  and  _139
REMARK   61  A    between atoms: _138  and  _141
REMARK   62  A    between atoms: _141  and  _142
REMARK   63  A    between atoms: _142  and  _143
REMARK   64  A    between atoms: _143  and  _144
REMARK   65  A    between atoms: _144  and  _145
REMARK   66  A    between atoms: _149  and  _151
REMARK   67  A    between atoms: _151  and  _152
REMARK   68  A    between atoms: _151  and  _154
REMARK   69  A    between atoms: _154  and  _155
REMARK   70  A    between atoms: _160  and  _162
REMARK   71  A    between atoms: _162  and  _163
REMARK   72  A    between atoms: _162  and  _165
REMARK   73  A    between atoms: _165  and  _166
REMARK   74  A    between atoms: _171  and  _173
REMARK   75  A    between atoms: _173  and  _174
REMARK   76  A    between atoms: _177  and  _179
REMARK   77  A    between atoms: _179  and  _180
REMARK   78  A    between atoms: _179  and  _182
REMARK   79  A    between atoms: _182  and  _183
REMARK   80  A    between atoms: _188  and  _190
REMARK   81  A    between atoms: _190  and  _191
REMARK   82  A    between atoms: _194  and  _196
REMARK   83  A    between atoms: _196  and  _197
REMARK   84  A    between atoms: _200  and  _202
REMARK   85  A    between atoms: _202  and  _203
REMARK   86  A    between atoms: _202  and  _205
REMARK   87  A    between atoms: _205  and  _206
REMARK   88  A    between atoms: _211  and  _213
REMARK   89  A    between atoms: _213  and  _214
REMARK   90  A    between atoms: _213  and  _216
REMARK   91  A    between atoms: _216  and  _217
REMARK   92  A    between atoms: _220  and  _222
REMARK   93  A    between atoms: _222  and  _223
REMARK   94  A    between atoms: _225  and  _227
REMARK   95  A    between atoms: _227  and  _228
REMARK   96  A    between atoms: _227  and  _230
REMARK   97  A    between atoms: _230  and  _231
REMARK   98  A    between atoms: _231  and  _232
REMARK   99  A    between atoms: _235  and  _237
REMARK  100  A    between atoms: _237  and  _238
REMARK  101  A    between atoms: _237  and  _240
REMARK  102  A    between atoms: _240  and  _241
REMARK  103  A    between atoms: _244  and  _246
REMARK  104  A    between atoms: _246  and  _247
REMARK  105  A    between atoms: _246  and  _249
REMARK  106  A    between atoms: _249  and  _250
REMARK  107  A    between atoms: _252  and  _254
REMARK  108  A    between atoms: _254  and  _255
REMARK  109  A    between atoms: _254  and  _257
REMARK  110  A    between atoms: _257  and  _258
REMARK  111  A    between atoms: _261  and  _263
REMARK  112  A    between atoms: _263  and  _264
REMARK  113  A    between atoms: _263  and  _266
REMARK  114  A    between atoms: _266  and  _267
REMARK  115  A    between atoms: _267  and  _268
REMARK  116  A    between atoms: _270  and  _272
REMARK  117  A    between atoms: _272  and  _273
REMARK  118  A    between atoms: _276  and  _278
REMARK  119  A    between atoms: _278  and  _279
REMARK  120  A    between atoms: _282  and  _284
REMARK  121  A    between atoms: _284  and  _285
REMARK  122  A    between atoms: _284  and  _287
REMARK  123  A    between atoms: _287  and  _288
REMARK  124  A    between atoms: _291  and  _293
REMARK  125  A    between atoms: _293  and  _294
REMARK  126  A    between atoms: _297  and  _299
REMARK  127  A    between atoms: _299  and  _300
REMARK  128  A    between atoms: _303  and  _305
REMARK  129  A    between atoms: _305  and  _306
REMARK  130  A    between atoms: _308  and  _310
REMARK  131  A    between atoms: _310  and  _311
REMARK  132  A    between atoms: _310  and  _313
REMARK  133  A    between atoms: _313  and  _314
REMARK  134  A    between atoms: _319  and  _321
REMARK  135  A    between atoms: _321  and  _322
REMARK  136  A    between atoms: _321  and  _324
REMARK  137  A    between atoms: _324  and  _325
REMARK  138  A    between atoms: _328  and  _330
REMARK  139  A    between atoms: _330  and  _331
REMARK  140  A    between atoms: _330  and  _333
REMARK  141  A    between atoms: _336  and  _338
REMARK  142  A    between atoms: _338  and  _339
REMARK  143  A    between atoms: _338  and  _341
REMARK  144  A    between atoms: _341  and  _342
REMARK  145  A    between atoms: _342  and  _343
REMARK  146  A    between atoms: _343  and  _344
REMARK  147  A    between atoms: _344  and  _345
REMARK  148  A    between atoms: _349  and  _351
REMARK  149  A    between atoms: _351  and  _352
REMARK  150  A    between atoms: _351  and  _354
REMARK  151  A    between atoms: _354  and  _355
REMARK  152  A    between atoms: _357  and  _359
REMARK  153  A    between atoms: _359  and  _360
REMARK  154  A    between atoms: _359  and  _362
REMARK  155  A    between atoms: _362  and  _363
REMARK  156  A    between atoms: _368  and  _369
REMARK  157  A    between atoms: _371  and  _373
REMARK  158  A    between atoms: _373  and  _374
REMARK  159  A    between atoms: _373  and  _376
REMARK  160  A    between atoms: _376  and  _377
REMARK  161  A    between atoms: _377  and  _378
REMARK  162  A    between atoms: _381  and  _383
REMARK  163  A    between atoms: _383  and  _384
REMARK  164  A    between atoms: _383  and  _386
REMARK  165  A    between atoms: _386  and  _387
REMARK  166  A    between atoms: _392  and  _394
REMARK  167  A    between atoms: _394  and  _395
REMARK  168  A    between atoms: _394  and  _397
REMARK  169  A    between atoms: _397  and  _398
REMARK  170  A    between atoms: _401  and  _403
REMARK  171  A    between atoms: _403  and  _404
REMARK  172  A    between atoms: _403  and  _406
REMARK  173  A    between atoms: _406  and  _407
REMARK  174  A    between atoms: _407  and  _408
REMARK  175  A    between atoms: _408  and  _409
REMARK  176  A    between atoms: _418  and  _420
REMARK  177  A    between atoms: _420  and  _421
REMARK  178  A    between atoms: _423  and  _425
REMARK  179  A    between atoms: _425  and  _426
REMARK  180  A    between atoms: _425  and  _428
REMARK  181  A    between atoms: _428  and  _429
REMARK  182  A    between atoms: _429  and  _430
REMARK  183  A    between atoms: _432  and  _434
REMARK  184  A    between atoms: _434  and  _435
REMARK  185  A    between atoms: _434  and  _437
REMARK  186  A    between atoms: _437  and  _438
REMARK  187  A    between atoms: _438  and  _439
REMARK  188  A    between atoms: _441  and  _443
REMARK  189  A    between atoms: _443  and  _444
REMARK  190  A    between atoms: _443  and  _446
REMARK  191  A    between atoms: _446  and  _447
REMARK  192  A    between atoms: _452  and  _454
REMARK  193  A    between atoms: _454  and  _455
REMARK  194  A    between atoms: _454  and  _457
REMARK  195  A    between atoms: _457  and  _458
REMARK  196  A    between atoms: _460  and  _462
REMARK  197  A    between atoms: _462  and  _463
REMARK  198  A    between atoms: _466  and  _468
REMARK  199  A    between atoms: _468  and  _469
REMARK  200  A    between atoms: _468  and  _471
REMARK  201  A    between atoms: _474  and  _476
REMARK  202  A    between atoms: _476  and  _477
REMARK  203  A    between atoms: _476  and  _479
REMARK  204  A    between atoms: _479  and  _480
REMARK  205  A    between atoms: _482  and  _484
REMARK  206  A    between atoms: _484  and  _485
REMARK  207  A    between atoms: _487  and  _489
REMARK  208  A    between atoms: _489  and  _490
REMARK  209  A    between atoms: _489  and  _492
REMARK  210  A    between atoms: _492  and  _493
REMARK  211  A    between atoms: _498  and  _500
REMARK  212  A    between atoms: _500  and  _501
REMARK  213  A    between atoms: _500  and  _503
REMARK  214  A    between atoms: _503  and  _504
REMARK  215  A    between atoms: _509  and  _510
REMARK  216  A    between atoms: _512  and  _514
REMARK  217  A    between atoms: _514  and  _515
REMARK  218  A    between atoms: _514  and  _517
REMARK  219  A    between atoms: _519  and  _521
REMARK  220  A    between atoms: _521  and  _522
REMARK  221  A    between atoms: _521  and  _524
REMARK  222  A    between atoms: _524  and  _525
REMARK  223  A    between atoms: _528  and  _530
REMARK  224  A    between atoms: _530  and  _531
REMARK  225  A    between atoms: _530  and  _533
REMARK  226  A    between atoms: _533  and  _534
REMARK  227  A    between atoms: _537  and  _539
REMARK  228  A    between atoms: _539  and  _540
REMARK  229  A    between atoms: _539  and  _542
REMARK  230  A    between atoms: _542  and  _543
REMARK  231  A    between atoms: _543  and  _544
REMARK  232  A    between atoms: _544  and  _545
REMARK  233  A    between atoms: _545  and  _546
REMARK  234  A    between atoms: _550  and  _552
REMARK  235  A    between atoms: _552  and  _553
REMARK  236  A    between atoms: _552  and  _555
REMARK  237  A    between atoms: _555  and  _556
REMARK  238  A    between atoms: _556  and  _557
REMARK  239  A    between atoms: _557  and  _558
REMARK  240  A    between atoms: _558  and  _559
REMARK  241  A    between atoms: _563  and  _565
REMARK  242  A    between atoms: _565  and  _566
REMARK  243  A    between atoms: _565  and  _568
REMARK  244  A    between atoms: _568  and  _569
REMARK  245  A    between atoms: _569  and  _570
REMARK  246  A    between atoms: _570  and  _571
REMARK  247  A    between atoms: _580  and  _582
REMARK  248  A    between atoms: _582  and  _583
REMARK  249  A    between atoms: _582  and  _585
REMARK  250  A    between atoms: _585  and  _586
REMARK  251  A    between atoms: _589  and  _591
REMARK  252  A    between atoms: _591  and  _592
REMARK  253  A    between atoms: _595  and  _597
REMARK  254  A    between atoms: _597  and  _598
REMARK  255  A    between atoms: _597  and  _600
REMARK  256  A    between atoms: _600  and  _601
REMARK  257  A    between atoms: _601  and  _602
REMARK                            x       y       z     vdW  Elec       q    Type
REMARK                         _______ _______ _______ _____ _____    ______ ____
ROOT
ATOM      1  CA  LEU A   9      19.729   0.093  45.135  0.00  0.00    +0.149 C 
ENDROOT
BRANCH   1   2
ATOM      2  C   LEU A   9      20.723  -1.050  45.336  0.00  0.00    +0.241 C 
ATOM      3  O   LEU A   9      20.330  -2.167  45.655  0.00  0.00    -0.273 OA
ATOM      4  N   ALA A  10      22.009  -0.754  45.156  0.00  0.00    -0.297 N 
ATOM      5  H   ALA A  10      22.267   0.224  44.913  0.00  0.00    +0.150 HD
BRANCH   4   6
ATOM      6  CA  ALA A  10      23.072  -1.750  45.286  0.00  0.00    +0.149 C 
ATOM      7  CB  ALA A  10      24.349  -1.249  44.617  0.00  0.00    +0.031 C 
BRANCH   6   8
ATOM      8  C   ALA A  10      23.340  -2.118  46.754  0.00  0.00    +0.241 C 
ATOM      9  N   ALA A  11      23.274  -1.134  47.647  0.00  0.00    -0.297 N 
ATOM     10  H   ALA A  11      23.094  -0.165  47.316  0.00  0.00    +0.150 HD
ATOM     11  O   ALA A  10      23.577  -3.279  47.066  0.00  0.00    -0.273 OA
BRANCH   9  12
ATOM     12  CA  ALA A  11      23.447  -1.373  49.083  0.00  0.00    +0.149 C 
ATOM     13  CB  ALA A  11      24.014  -0.129  49.767  0.00  0.00    +0.031 C 
BRANCH  12  14
ATOM     14  C   ALA A  11      22.143  -1.811  49.765  0.00  0.00    +0.241 C 
ATOM     15  O   ALA A  11      21.992  -1.642  50.972  0.00  0.00    -0.273 OA
ATOM     16  N   GLY A  12      21.202  -2.350  48.988  0.00  0.00    -0.295 N 
ATOM     17  H   GLY A  12      21.295  -2.260  47.956  0.00  0.00    +0.150 HD
BRANCH  16  18
ATOM     18  CA  GLY A  12      20.053  -3.057  49.526  0.00  0.00    +0.176 C 
BRANCH  18  19
ATOM     19  C   GLY A  12      18.849  -2.234  49.956  0.00  0.00    +0.243 C 
ATOM     20  O   GLY A  12      17.910  -2.800  50.526  0.00  0.00    -0.273 OA
ATOM     21  N   HIS A  13      18.856  -0.927  49.686  0.00  0.00    -0.297 N 
ATOM     22  H   HIS A  13      19.674  -0.516  49.192  0.00  0.00    +0.150 HD
BRANCH  21  23
ATOM     23  CA  HIS A  13      17.739  -0.053  50.068  0.00  0.00    +0.155 C 
BRANCH  23  24
ATOM     24  C   HIS A  13      16.525  -0.358  49.199  0.00  0.00    +0.241 C 
ATOM     25  N   LEU A  14      15.443  -0.803  49.831  0.00  0.00    -0.297 N 
ATOM     26  H   LEU A  14      15.486  -0.932  50.862  0.00  0.00    +0.150 HD
ATOM     27  O   HIS A  13      16.574  -0.182  47.982  0.00  0.00    -0.273 OA
BRANCH  25  28
ATOM     28  CA  LEU A  14      14.196  -1.119  49.139  0.00  0.00    +0.149 C 
BRANCH  28  29
ATOM     29  C   LEU A  14      13.139  -0.018  49.291  0.00  0.00    +0.241 C 
ATOM     30  N   VAL A  15      13.335   0.887  50.255  0.00  0.00    -0.297 N 
ATOM     31  H   VAL A  15      14.228   0.861  50.787  0.00  0.00    +0.150 HD
ATOM     32  O   LEU A  14      12.163   0.002  48.544  0.00  0.00    -0.273 OA
BRANCH  30  33
ATOM     33  CA  VAL A  15      12.342   1.918  50.596  0.00  0.00    +0.149 C 
BRANCH  33  34
ATOM     34  C   VAL A  15      12.992   3.285  50.835  0.00  0.00    +0.241 C 
ATOM     35  O   VAL A  15      14.151   3.373  51.252  0.00  0.00    -0.273 OA
ATOM     36  N   LYS A  16      12.231   4.349  50.588  0.00  0.00    -0.297 N 
ATOM     37  H   LYS A  16      11.262   4.203  50.239  0.00  0.00    +0.150 HD
BRANCH  36  38
ATOM     38  CA  LYS A  16      12.712   5.719  50.791  0.00  0.00    +0.149 C 
BRANCH  38  39
ATOM     39  C   LYS A  16      12.906   6.007  52.286  0.00  0.00    +0.241 C 
ATOM     40  O   LYS A  16      11.931   6.126  53.038  0.00  0.00    -0.273 OA
ATOM     41  N   SER A  17      14.165   6.124  52.710  0.00  0.00    -0.296 N 
ATOM     42  H   SER A  17      14.932   6.162  52.009  0.00  0.00    +0.150 HD
BRANCH  41  43
ATOM     43  CA  SER A  17      14.499   6.201  54.137  0.00  0.00    +0.166 C 
BRANCH  43  44
ATOM     44  C   SER A  17      14.383   7.626  54.677  0.00  0.00    +0.229 C 
ATOM     45  O   SER A  17      15.202   8.492  54.368  0.00  0.00    -0.286 OA
ENDBRANCH  43  44
BRANCH  43  46
ATOM     46  CB  SER A  17      15.905   5.633  54.397  0.00  0.00    +0.165 C 
BRANCH  46  47
ATOM     47  OG  SER A  17      15.877   4.672  55.443  0.00  0.00    -0.380 OA
ATOM     48  H   SER A  17      16.791   4.321  55.592  0.00  0.00    +0.211 HD
ENDBRANCH  46  47
ENDBRANCH  43  46
ENDBRANCH  41  43
ENDBRANCH  38  39
BRANCH  38  49
ATOM     49  CB  LYS A  16      11.732   6.726  50.173  0.00  0.00    +0.029 C 
BRANCH  49  50
ATOM     50  CG  LYS A  16      12.347   7.639  49.137  0.00  0.00    +0.000 C 
BRANCH  50  51
ATOM     51  CD  LYS A  16      11.382   8.751  48.748  0.00  0.00    -0.024 C 
BRANCH  51  52
ATOM     52  CE  LYS A  16      10.757   8.507  47.383  0.00  0.00    -0.086 C 
BRANCH  52  53
ATOM     53  NZ  LYS A  16       9.542   9.349  47.156  0.00  0.00    +0.380 N 
ATOM     54  HZ1 LYS A  16       8.829   9.130  47.881  0.00  0.00    -0.089 HD
ATOM     55  HZ2 LYS A  16       9.802  10.354  47.217  0.00  0.00    -0.089 HD
ATOM     56  HZ3 LYS A  16       9.153   9.147  46.213  0.00  0.00    -0.089 HD
ENDBRANCH  52  53
ENDBRANCH  51  52
ENDBRANCH  50  51
ENDBRANCH  49  50
ENDBRANCH  38  49
ENDBRANCH  36  38
ENDBRANCH  33  34
BRANCH  33  57
ATOM     57  CB  VAL A  15      11.538   1.531  51.880  0.00  0.00    +0.027 C 
ATOM     58  CG2 VAL A  15      10.275   2.388  52.026  0.00  0.00    +0.002 C 
ATOM     59  CG1 VAL A  15      11.178   0.048  51.876  0.00  0.00    +0.002 C 
ENDBRANCH  33  57
ENDBRANCH  30  33
ENDBRANCH  28  29
BRANCH  28  60
ATOM     60  CB  LEU A  14      13.631  -2.445  49.663  0.00  0.00    +0.029 C 
BRANCH  60  61
ATOM     61  CG  LEU A  14      14.556  -3.672  49.634  0.00  0.00    +0.002 C 
ATOM     62  CD2 LEU A  14      14.389  -4.521  50.897  0.00  0.00    +0.000 C 
ATOM     63  CD1 LEU A  14      14.318  -4.533  48.396  0.00  0.00    +0.000 C 
ENDBRANCH  60  61
ENDBRANCH  28  60
ENDBRANCH  25  28
ENDBRANCH  23  24
BRANCH  23  64
ATOM     64  CB  HIS A  13      18.076   1.436  49.896  0.00  0.00    +0.076 C 
BRANCH  64  65
ATOM     65  CG  HIS A  13      19.223   1.917  50.729  0.00  0.00    +0.082 A 
ATOM     66  ND1 HIS A  13      19.080   2.901  51.683  0.00  0.00    -0.227 NA
ATOM     67  CE1 HIS A  13      20.252   3.140  52.245  0.00  0.00    +0.199 A 
ATOM     68  NE2 HIS A  13      21.152   2.356  51.680  0.00  0.00    -0.221 NA
ATOM     69  CD2 HIS A  13      20.536   1.587  50.723  0.00  0.00    +0.115 A 
ENDBRANCH  64  65
ENDBRANCH  23  64
ENDBRANCH  21  23
ENDBRANCH  18  19
ENDBRANCH  16  18
ENDBRANCH  12  14
ENDBRANCH   9  12
ENDBRANCH   6   8
ENDBRANCH   4   6
ENDBRANCH   1   2
BRANCH   1  72
ATOM     70  C   ALA A   8      20.590   1.669  46.774  0.00  0.00    +0.241 C 
ATOM     71  O   ALA A   8      20.339   0.894  47.688  0.00  0.00    -0.273 OA
ATOM     72  N   LEU A   9      20.336   1.373  45.505  0.00  0.00    -0.297 N 
ATOM     73  H   LEU A   9      20.572   2.061  44.762  0.00  0.00    +0.150 HD
BRANCH  70  74
ATOM     74  CA  ALA A   8      21.236   3.024  47.071  0.00  0.00    +0.149 C 
ATOM     75  CB  ALA A   8      20.173   4.109  47.168  0.00  0.00    +0.031 C 
BRANCH  74  78
ATOM     76  C   ALA A   7      23.338   2.665  45.885  0.00  0.00    +0.241 C 
ATOM     77  O   ALA A   7      23.635   1.698  46.577  0.00  0.00    -0.273 OA
ATOM     78  N   ALA A   8      22.234   3.380  46.070  0.00  0.00    -0.297 N 
ATOM     79  H   ALA A   8      22.076   4.222  45.481  0.00  0.00    +0.150 HD
BRANCH  76  80
ATOM     80  CA  ALA A   7      24.248   3.106  44.749  0.00  0.00    +0.149 C 
ATOM     81  CB  ALA A   7      25.083   4.286  45.188  0.00  0.00    +0.031 C 
BRANCH  80  83
ATOM     82  C   MET A   6      22.842   2.527  42.836  0.00  0.00    +0.241 C 
ATOM     83  N   ALA A   7      23.466   3.447  43.564  0.00  0.00    -0.297 N 
ATOM     84  H   ALA A   7      23.395   4.445  43.280  0.00  0.00    +0.150 HD
ATOM     85  O   MET A   6      22.920   1.324  43.063  0.00  0.00    -0.273 OA
BRANCH  82  86
ATOM     86  CA  MET A   6      22.008   3.037  41.662  0.00  0.00    +0.149 C 
BRANCH  86  89
ATOM     87  C   LEU A   5      20.506   4.513  42.889  0.00  0.00    +0.241 C 
ATOM     88  O   LEU A   5      20.054   3.575  43.542  0.00  0.00    -0.273 OA
ATOM     89  N   MET A   6      21.438   4.354  41.952  0.00  0.00    -0.297 N 
ATOM     90  H   MET A   6      21.768   5.182  41.415  0.00  0.00    +0.150 HD
BRANCH  87  91
ATOM     91  CA  LEU A   5      19.990   5.935  43.119  0.00  0.00    +0.149 C 
BRANCH  91  94
ATOM     92  C   SER A   4      22.011   6.963  43.995  0.00  0.00    +0.243 C 
ATOM     93  O   SER A   4      21.926   6.299  45.019  0.00  0.00    -0.273 OA
ATOM     94  N   LEU A   5      21.088   6.908  43.039  0.00  0.00    -0.297 N 
ATOM     95  H   LEU A   5      21.144   7.558  42.229  0.00  0.00    +0.150 HD
BRANCH  92  96
ATOM     96  CA  SER A   4      23.195   7.906  43.807  0.00  0.00    +0.178 C 
BRANCH  96  99
ATOM     97  C   LEU A   3      24.605   7.060  42.004  0.00  0.00    +0.241 C 
ATOM     98  O   LEU A   3      24.925   6.058  42.642  0.00  0.00    -0.273 OA
ATOM     99  N   SER A   4      23.717   7.950  42.442  0.00  0.00    -0.295 N 
ATOM    100  H   SER A   4      23.386   8.696  41.797  0.00  0.00    +0.150 HD
BRANCH  97 101
ATOM    101  CA  LEU A   3      25.243   7.340  40.647  0.00  0.00    +0.149 C 
BRANCH 101 104
ATOM    102  C   GLU A   2      23.164   7.280  39.373  0.00  0.00    +0.241 C 
ATOM    103  O   GLU A   2      22.843   6.200  39.851  0.00  0.00    -0.273 OA
ATOM    104  N   LEU A   3      24.299   7.901  39.681  0.00  0.00    -0.297 N 
ATOM    105  H   LEU A   3      24.521   8.808  39.223  0.00  0.00    +0.150 HD
BRANCH 102 106
ATOM    106  CA  GLU A   2      22.246   7.978  38.388  0.00  0.00    +0.149 C 
BRANCH 106 109
ATOM    107  C   GLY A   1      21.410   9.817  39.764  0.00  0.00    +0.240 C 
ATOM    108  O   GLY A   1      20.813   9.060  40.528  0.00  0.00    -0.274 OA
ATOM    109  N   GLU A   2      22.120   9.390  38.717  0.00  0.00    -0.297 N 
ATOM    110  H   GLU A   2      22.599  10.090  38.116  0.00  0.00    +0.150 HD
BRANCH 107 111
ATOM    111  CA  GLY A   1      21.376  11.316  39.996  0.00  0.00    +0.169 C 
BRANCH 111 112
ATOM    112  N   GLY A   1      22.572  11.993  39.523  0.00  0.00    -0.236 NA
ATOM    113  H   GLY A   1      22.478  12.707  38.773  0.00  0.00    +0.142 HD
ENDBRANCH 111 112
ENDBRANCH 107 111
ENDBRANCH 106 109
BRANCH 106 114
ATOM    114  CB  GLU A   2      22.785   7.790  36.971  0.00  0.00    +0.041 C 
BRANCH 114 115
ATOM    115  CG  GLU A   2      21.763   8.058  35.880  0.00  0.00    +0.116 C 
BRANCH 115 116
ATOM    116  CD  GLU A   2      20.676   7.014  35.834  0.00  0.00    +0.365 C 
ATOM    117  OE2 GLU A   2      19.610   7.250  36.430  0.00  0.00    -0.246 OA
ATOM    118  OE1 GLU A   2      20.886   5.965  35.200  0.00  0.00    -0.246 OA
ENDBRANCH 115 116
ENDBRANCH 114 115
ENDBRANCH 106 114
ENDBRANCH 102 106
ENDBRANCH 101 104
BRANCH 101 119
ATOM    119  CB  LEU A   3      26.434   8.282  40.867  0.00  0.00    +0.029 C 
BRANCH 119 120
ATOM    120  CG  LEU A   3      27.738   8.009  40.117  0.00  0.00    +0.002 C 
ATOM    121  CD2 LEU A   3      28.818   8.945  40.639  0.00  0.00    +0.000 C 
ATOM    122  CD1 LEU A   3      28.181   6.563  40.248  0.00  0.00    +0.000 C 
ENDBRANCH 119 120
ENDBRANCH 101 119
ENDBRANCH  97 101
ENDBRANCH  96  99
BRANCH  96 123
ATOM    123  CB  SER A   4      22.820   9.311  44.277  0.00  0.00    +0.166 C 
BRANCH 123 124
ATOM    124  OG  SER A   4      22.362   9.288  45.619  0.00  0.00    -0.380 OA
ATOM    125  H   SER A   4      22.125  10.207  45.901  0.00  0.00    +0.211 HD
ENDBRANCH 123 124
ENDBRANCH  96 123
ENDBRANCH  92  96
ENDBRANCH  91  94
BRANCH  91 126
ATOM    126  CB  LEU A   5      18.863   6.249  42.121  0.00  0.00    +0.029 C 
BRANCH 126 127
ATOM    127  CG  LEU A   5      17.712   5.229  42.105  0.00  0.00    +0.002 C 
ATOM    128  CD2 LEU A   5      17.021   5.174  43.462  0.00  0.00    +0.000 C 
ATOM    129  CD1 LEU A   5      16.703   5.522  41.010  0.00  0.00    +0.000 C 
ENDBRANCH 126 127
ENDBRANCH  91 126
ENDBRANCH  87  91
ENDBRANCH  86  89
BRANCH  86 130
ATOM    130  CB  MET A   6      22.873   3.073  40.398  0.00  0.00    +0.041 C 
BRANCH 130 131
ATOM    131  CG  MET A   6      22.111   3.388  39.111  0.00  0.00    +0.060 C 
BRANCH 131 132
ATOM    132  SD  MET A   6      20.968   2.116  38.610  0.00  0.00    -0.139 S 
ATOM    133  CE  MET A   6      22.092   0.873  38.094  0.00  0.00    +0.069 C 
ENDBRANCH 131 132
ENDBRANCH 130 131
ENDBRANCH  86 130
ENDBRANCH  82  86
ENDBRANCH  80  83
ENDBRANCH  76  80
ENDBRANCH  74  78
ENDBRANCH  70  74
ENDBRANCH   1  72
BRANCH   1 134
ATOM    134  CB  LEU A   9      19.238   0.106  43.682  0.00  0.00    +0.029 C 
BRANCH 134 135
ATOM    135  CG  LEU A   9      18.065   1.033  43.350  0.00  0.00    +0.002 C 
ATOM    136  CD2 LEU A   9      16.758   0.480  43.870  0.00  0.00    +0.000 C 
ATOM    137  CD1 LEU A   9      17.984   1.256  41.851  0.00  0.00    +0.000 C 
ENDBRANCH 134 135
ENDBRANCH   1 134
TORSDOF 60
REMARK  Name = ../refined-set-2016/3cd5/3cd5_pocket.pdb
REMARK  257 active torsions:
REMARK  status: ('A' for Active; 'I' for Inactive)
REMARK    1  A    between atoms: _1  and  _3
REMARK    2  A    between atoms: _3  and  _4
REMARK    3  A    between atoms: _3  and  _6
REMARK    4  A    between atoms: _6  and  _7
REMARK    5  A    between atoms: _7  and  _8
REMARK    6  A    between atoms: _11  and  _13
REMARK    7  A    between atoms: _13  and  _14
REMARK    8  A    between atoms: _16  and  _18
REMARK    9  A    between atoms: _18  and  _19
REMARK   10  A    between atoms: _18  and  _21
REMARK   11  A    between atoms: _23  and  _25
REMARK   12  A    between atoms: _25  and  _26
REMARK   13  A    between atoms: _25  and  _28
REMARK   14  A    between atoms: _28  and  _29
REMARK   15  A    between atoms: _32  and  _34
REMARK   16  A    between atoms: _34  and  _35
REMARK   17  A    between atoms: _34  and  _37
REMARK   18  A    between atoms: _40  and  _42
REMARK   19  A    between atoms: _42  and  _43
REMARK   20  A    between atoms: _46  and  _48
REMARK   21  A    between atoms: _48  and  _49
REMARK   22  A    between atoms: _48  and  _51
REMARK   23  A    between atoms: _51  and  _52
REMARK   24  A    between atoms: _54  and  _56
REMARK   25  A    between atoms: _56  and  _57
REMARK   26  A    between atoms: _56  and  _59
REMARK   27  A    between atoms: _59  and  _60
REMARK   28  A    between atoms: _63  and  _65
REMARK   29  A    between atoms: _65  and  _66
REMARK   30  A    between atoms: _65  and  _68
REMARK   31  A    between atoms: _68  and  _69
REMARK   32  A    between atoms: _74  and  _76
REMARK   33  A    between atoms: _76  and  _77
REMARK   34  A    between atoms: _76  and  _79
REMARK   35  A    between atoms: _79  and  _80
REMARK   36  A    between atoms: _80  and  _81
REMARK   37  A    between atoms: _81  and  _82
REMARK   38  A    between atoms: _91  and  _93
REMARK   39  A    between atoms: _93  and  _94
REMARK   40  A    between atoms: _96  and  _98
REMARK   41  A    between atoms: _98  and  _99
REMARK   42  A    between atoms: _98  and  _101
REMARK   43  A    between atoms: _101  and  _102
REMARK   44  A    between atoms: _102  and  _103
REMARK   45  A    between atoms: _106  and  _108
REMARK   46  A    between atoms: _108  and  _109
REMARK   47  A    between atoms: _108  and  _111
REMARK   48  A    between atoms: _114  and  _116
REMARK   49  A    between atoms: _116  and  _117
REMARK   50  A    between atoms: _116  and  _119
REMARK   51  A    between atoms: _119  and  _120
REMARK   52  A    between atoms: _123  and  _125
REMARK   53  A    between atoms: _125  and  _126
REMARK   54  A    between atoms: _125  and  _128
REMARK   55  A    between atoms: _128  and  _129
REMARK   56  A    between atoms: _129  and  _130
REMARK   57  A    between atoms: _130  and  _131
REMARK   58  A    between atoms: _131  and  _132
REMARK   59  A    between atoms: _136  and  _138
REMARK   60  A    between atoms: _138  and  _139
REMARK   61  A    between atoms: _138  and  _141
REMARK   62  A    between atoms: _141  and  _142
REMARK   63  A    between atoms: _142  and  _143
REMARK   64  A    between atoms: _143  and  _144
REMARK   65  A    between atoms: _144  and  _145
REMARK   66  A    between atoms: _149  and  _151
REMARK   67  A    between atoms: _151  and  _152
REMARK   68  A    between atoms: _151  and  _154
REMARK   69  A    between atoms: _154  and  _155
REMARK   70  A    between atoms: _160  and  _162
REMARK   71  A    between atoms: _162  and  _163
REMARK   72  A    between atoms: _162  and  _165
REMARK   73  A    between atoms: _165  and  _166
REMARK   74  A    between atoms: _171  and  _173
REMARK   75  A    between atoms: _173  and  _174
REMARK   76  A    between atoms: _177  and  _179
REMARK   77  A    between atoms: _179  and  _180
REMARK   78  A    between atoms: _179  and  _182
REMARK   79  A    between atoms: _182  and  _183
REMARK   80  A    between atoms: _188  and  _190
REMARK   81  A    between atoms: _190  and  _191
REMARK   82  A    between atoms: _194  and  _196
REMARK   83  A    between atoms: _196  and  _197
REMARK   84  A    between atoms: _200  and  _202
REMARK   85  A    between atoms: _202  and  _203
REMARK   86  A    between atoms: _202  and  _205
REMARK   87  A    between atoms: _205  and  _206
REMARK   88  A    between atoms: _211  and  _213
REMARK   89  A    between atoms: _213  and  _214
REMARK   90  A    between atoms: _213  and  _216
REMARK   91  A    between atoms: _216  and  _217
REMARK   92  A    between atoms: _220  and  _222
REMARK   93  A    between atoms: _222  and  _223
REMARK   94  A    between atoms: _225  and  _227
REMARK   95  A    between atoms: _227  and  _228
REMARK   96  A    between atoms: _227  and  _230
REMARK   97  A    between atoms: _230  and  _231
REMARK   98  A    between atoms: _231  and  _232
REMARK   99  A    between atoms: _235  and  _237
REMARK  100  A    between atoms: _237  and  _238
REMARK  101  A    between atoms: _237  and  _240
REMARK  102  A    between atoms: _240  and  _241
REMARK  103  A    between atoms: _244  and  _246
REMARK  104  A    between atoms: _246  and  _247
REMARK  105  A    between atoms: _246  and  _249
REMARK  106  A    between atoms: _249  and  _250
REMARK  107  A    between atoms: _252  and  _254
REMARK  108  A    between atoms: _254  and  _255
REMARK  109  A    between atoms: _254  and  _257
REMARK  110  A    between atoms: _257  and  _258
REMARK  111  A    between atoms: _261  and  _263
REMARK  112  A    between atoms: _263  and  _264
REMARK  113  A    between atoms: _263  and  _266
REMARK  114  A    between atoms: _266  and  _267
REMARK  115  A    between atoms: _267  and  _268
REMARK  116  A    between atoms: _270  and  _272
REMARK  117  A    between atoms: _272  and  _273
REMARK  118  A    between atoms: _276  and  _278
REMARK  119  A    between atoms: _278  and  _279
REMARK  120  A    between atoms: _282  and  _284
REMARK  121  A    between atoms: _284  and  _285
REMARK  122  A    between atoms: _284  and  _287
REMARK  123  A    between atoms: _287  and  _288
REMARK  124  A    between atoms: _291  and  _293
REMARK  125  A    between atoms: _293  and  _294
REMARK  126  A    between atoms: _297  and  _299
REMARK  127  A    between atoms: _299  and  _300
REMARK  128  A    between atoms: _303  and  _305
REMARK  129  A    between atoms: _305  and  _306
REMARK  130  A    between atoms: _308  and  _310
REMARK  131  A    between atoms: _310  and  _311
REMARK  132  A    between atoms: _310  and  _313
REMARK  133  A    between atoms: _313  and  _314
REMARK  134  A    between atoms: _319  and  _321
REMARK  135  A    between atoms: _321  and  _322
REMARK  136  A    between atoms: _321  and  _324
REMARK  137  A    between atoms: _324  and  _325
REMARK  138  A    between atoms: _328  and  _330
REMARK  139  A    between atoms: _330  and  _331
REMARK  140  A    between atoms: _330  and  _333
REMARK  141  A    between atoms: _336  and  _338
REMARK  142  A    between atoms: _338  and  _339
REMARK  143  A    between atoms: _338  and  _341
REMARK  144  A    between atoms: _341  and  _342
REMARK  145  A    between atoms: _342  and  _343
REMARK  146  A    between atoms: _343  and  _344
REMARK  147  A    between atoms: _344  and  _345
REMARK  148  A    between atoms: _349  and  _351
REMARK  149  A    between atoms: _351  and  _352
REMARK  150  A    between atoms: _351  and  _354
REMARK  151  A    between atoms: _354  and  _355
REMARK  152  A    between atoms: _357  and  _359
REMARK  153  A    between atoms: _359  and  _360
REMARK  154  A    between atoms: _359  and  _362
REMARK  155  A    between atoms: _362  and  _363
REMARK  156  A    between atoms: _368  and  _369
REMARK  157  A    between atoms: _371  and  _373
REMARK  158  A    between atoms: _373  and  _374
REMARK  159  A    between atoms: _373  and  _376
REMARK  160  A    between atoms: _376  and  _377
REMARK  161  A    between atoms: _377  and  _378
REMARK  162  A    between atoms: _381  and  _383
REMARK  163  A    between atoms: _383  and  _384
REMARK  164  A    between atoms: _383  and  _386
REMARK  165  A    between atoms: _386  and  _387
REMARK  166  A    between atoms: _392  and  _394
REMARK  167  A    between atoms: _394  and  _395
REMARK  168  A    between atoms: _394  and  _397
REMARK  169  A    between atoms: _397  and  _398
REMARK  170  A    between atoms: _401  and  _403
REMARK  171  A    between atoms: _403  and  _404
REMARK  172  A    between atoms: _403  and  _406
REMARK  173  A    between atoms: _406  and  _407
REMARK  174  A    between atoms: _407  and  _408
REMARK  175  A    between atoms: _408  and  _409
REMARK  176  A    between atoms: _418  and  _420
REMARK  177  A    between atoms: _420  and  _421
REMARK  178  A    between atoms: _423  and  _425
REMARK  179  A    between atoms: _425  and  _426
REMARK  180  A    between atoms: _425  and  _428
REMARK  181  A    between atoms: _428  and  _429
REMARK  182  A    between atoms: _429  and  _430
REMARK  183  A    between atoms: _432  and  _434
REMARK  184  A    between atoms: _434  and  _435
REMARK  185  A    between atoms: _434  and  _437
REMARK  186  A    between atoms: _437  and  _438
REMARK  187  A    between atoms: _438  and  _439
REMARK  188  A    between atoms: _441  and  _443
REMARK  189  A    between atoms: _443  and  _444
REMARK  190  A    between atoms: _443  and  _446
REMARK  191  A    between atoms: _446  and  _447
REMARK  192  A    between atoms: _452  and  _454
REMARK  193  A    between atoms: _454  and  _455
REMARK  194  A    between atoms: _454  and  _457
REMARK  195  A    between atoms: _457  and  _458
REMARK  196  A    between atoms: _460  and  _462
REMARK  197  A    between atoms: _462  and  _463
REMARK  198  A    between atoms: _466  and  _468
REMARK  199  A    between atoms: _468  and  _469
REMARK  200  A    between atoms: _468  and  _471
REMARK  201  A    between atoms: _474  and  _476
REMARK  202  A    between atoms: _476  and  _477
REMARK  203  A    between atoms: _476  and  _479
REMARK  204  A    between atoms: _479  and  _480
REMARK  205  A    between atoms: _482  and  _484
REMARK  206  A    between atoms: _484  and  _485
REMARK  207  A    between atoms: _487  and  _489
REMARK  208  A    between atoms: _489  and  _490
REMARK  209  A    between atoms: _489  and  _492
REMARK  210  A    between atoms: _492  and  _493
REMARK  211  A    between atoms: _498  and  _500
REMARK  212  A    between atoms: _500  and  _501
REMARK  213  A    between atoms: _500  and  _503
REMARK  214  A    between atoms: _503  and  _504
REMARK  215  A    between atoms: _509  and  _510
REMARK  216  A    between atoms: _512  and  _514
REMARK  217  A    between atoms: _514  and  _515
REMARK  218  A    between atoms: _514  and  _517
REMARK  219  A    between atoms: _519  and  _521
REMARK  220  A    between atoms: _521  and  _522
REMARK  221  A    between atoms: _521  and  _524
REMARK  222  A    between atoms: _524  and  _525
REMARK  223  A    between atoms: _528  and  _530
REMARK  224  A    between atoms: _530  and  _531
REMARK  225  A    between atoms: _530  and  _533
REMARK  226  A    between atoms: _533  and  _534
REMARK  227  A    between atoms: _537  and  _539
REMARK  228  A    between atoms: _539  and  _540
REMARK  229  A    between atoms: _539  and  _542
REMARK  230  A    between atoms: _542  and  _543
REMARK  231  A    between atoms: _543  and  _544
REMARK  232  A    between atoms: _544  and  _545
REMARK  233  A    between atoms: _545  and  _546
REMARK  234  A    between atoms: _550  and  _552
REMARK  235  A    between atoms: _552  and  _553
REMARK  236  A    between atoms: _552  and  _555
REMARK  237  A    between atoms: _555  and  _556
REMARK  238  A    between atoms: _556  and  _557
REMARK  239  A    between atoms: _557  and  _558
REMARK  240  A    between atoms: _558  and  _559
REMARK  241  A    between atoms: _563  and  _565
REMARK  242  A    between atoms: _565  and  _566
REMARK  243  A    between atoms: _565  and  _568
REMARK  244  A    between atoms: _568  and  _569
REMARK  245  A    between atoms: _569  and  _570
REMARK  246  A    between atoms: _570  and  _571
REMARK  247  A    between atoms: _580  and  _582
REMARK  248  A    between atoms: _582  and  _583
REMARK  249  A    between atoms: _582  and  _585
REMARK  250  A    between atoms: _585  and  _586
REMARK  251  A    between atoms: _589  and  _591
REMARK  252  A    between atoms: _591  and  _592
REMARK  253  A    between atoms: _595  and  _597
REMARK  254  A    between atoms: _597  and  _598
REMARK  255  A    between atoms: _597  and  _600
REMARK  256  A    between atoms: _600  and  _601
REMARK  257  A    between atoms: _601  and  _602
REMARK                            x       y       z     vdW  Elec       q    Type
REMARK                         _______ _______ _______ _____ _____    ______ ____
ROOT
ATOM      1  CG  TYR A   1      24.062  17.890  56.151  0.00  0.00    -0.020 A 
ATOM      2  CD2 TYR A   1      23.421  17.082  57.092  0.00  0.00    -0.001 A 
ATOM      3  CE2 TYR A   1      24.146  16.346  58.023  0.00  0.00    +0.036 A 
ATOM      4  CZ  TYR A   1      25.529  16.406  58.018  0.00  0.00    +0.134 A 
ATOM      5  CE1 TYR A   1      26.193  17.197  57.090  0.00  0.00    +0.036 A 
ATOM      6  CD1 TYR A   1      25.458  17.932  56.161  0.00  0.00    -0.001 A 
ENDROOT
BRANCH   4   7
ATOM      7  OH  TYR A   1      26.237  15.672  58.946  0.00  0.00    -0.506 OA
ATOM      8  HH  TYR A   1      25.605  15.172  59.521  0.00  0.00    +0.292 HD
ENDBRANCH   4   7
BRANCH   1   9
ATOM      9  CB  TYR A   1      23.260  18.686  55.137  0.00  0.00    +0.051 C 
BRANCH   9  10
ATOM     10  CA  TYR A   1      23.019  20.161  55.503  0.00  0.00    +0.137 C 
BRANCH  10  11
ATOM     11  N   TYR A   1      24.197  20.971  55.194  0.00  0.00    -0.239 NA
ATOM     12  H   TYR A   1      25.120  20.505  55.083  0.00  0.00    +0.142 HD
ENDBRANCH  10  11
BRANCH  10  13
ATOM     13  C   TYR A   1      22.547  20.303  56.960  0.00  0.00    +0.224 C 
ATOM     14  O   TYR A   1      21.401  19.968  57.273  0.00  0.00    -0.287 OA
ENDBRANCH  10  13
ENDBRANCH   9  10
ENDBRANCH   1   9
TORSDOF 5
REMARK  Name = ../refined-set-2016/3cd5/3cd5_pocket.pdb
REMARK  257 active torsions:
REMARK  status: ('A' for Active; 'I' for Inactive)
REMARK    1  A    between atoms: _1  and  _3
REMARK    2  A    between atoms: _3  and  _4
REMARK    3  A    between atoms: _3  and  _6
REMARK    4  A    between atoms: _6  and  _7
REMARK    5  A    between atoms: _7  and  _8
REMARK    6  A    between atoms: _11  and  _13
REMARK    7  A    between atoms: _13  and  _14
REMARK    8  A    between atoms: _16  and  _18
REMARK    9  A    between atoms: _18  and  _19
REMARK   10  A    between atoms: _18  and  _21
REMARK   11  A    between atoms: _23  and  _25
REMARK   12  A    between atoms: _25  and  _26
REMARK   13  A    between atoms: _25  and  _28
REMARK   14  A    between atoms: _28  and  _29
REMARK   15  A    between atoms: _32  and  _34
REMARK   16  A    between atoms: _34  and  _35
REMARK   17  A    between atoms: _34  and  _37
REMARK   18  A    between atoms: _40  and  _42
REMARK   19  A    between atoms: _42  and  _43
REMARK   20  A    between atoms: _46  and  _48
REMARK   21  A    between atoms: _48  and  _49
REMARK   22  A    between atoms: _48  and  _51
REMARK   23  A    between atoms: _51  and  _52
REMARK   24  A    between atoms: _54  and  _56
REMARK   25  A    between atoms: _56  and  _57
REMARK   26  A    between atoms: _56  and  _59
REMARK   27  A    between atoms: _59  and  _60
REMARK   28  A    between atoms: _63  and  _65
REMARK   29  A    between atoms: _65  and  _66
REMARK   30  A    between atoms: _65  and  _68
REMARK   31  A    between atoms: _68  and  _69
REMARK   32  A    between atoms: _74  and  _76
REMARK   33  A    between atoms: _76  and  _77
REMARK   34  A    between atoms: _76  and  _79
REMARK   35  A    between atoms: _79  and  _80
REMARK   36  A    between atoms: _80  and  _81
REMARK   37  A    between atoms: _81  and  _82
REMARK   38  A    between atoms: _91  and  _93
REMARK   39  A    between atoms: _93  and  _94
REMARK   40  A    between atoms: _96  and  _98
REMARK   41  A    between atoms: _98  and  _99
REMARK   42  A    between atoms: _98  and  _101
REMARK   43  A    between atoms: _101  and  _102
REMARK   44  A    between atoms: _102  and  _103
REMARK   45  A    between atoms: _106  and  _108
REMARK   46  A    between atoms: _108  and  _109
REMARK   47  A    between atoms: _108  and  _111
REMARK   48  A    between atoms: _114  and  _116
REMARK   49  A    between atoms: _116  and  _117
REMARK   50  A    between atoms: _116  and  _119
REMARK   51  A    between atoms: _119  and  _120
REMARK   52  A    between atoms: _123  and  _125
REMARK   53  A    between atoms: _125  and  _126
REMARK   54  A    between atoms: _125  and  _128
REMARK   55  A    between atoms: _128  and  _129
REMARK   56  A    between atoms: _129  and  _130
REMARK   57  A    between atoms: _130  and  _131
REMARK   58  A    between atoms: _131  and  _132
REMARK   59  A    between atoms: _136  and  _138
REMARK   60  A    between atoms: _138  and  _139
REMARK   61  A    between atoms: _138  and  _141
REMARK   62  A    between atoms: _141  and  _142
REMARK   63  A    between atoms: _142  and  _143
REMARK   64  A    between atoms: _143  and  _144
REMARK   65  A    between atoms: _144  and  _145
REMARK   66  A    between atoms: _149  and  _151
REMARK   67  A    between atoms: _151  and  _152
REMARK   68  A    between atoms: _151  and  _154
REMARK   69  A    between atoms: _154  and  _155
REMARK   70  A    between atoms: _160  and  _162
REMARK   71  A    between atoms: _162  and  _163
REMARK   72  A    between atoms: _162  and  _165
REMARK   73  A    between atoms: _165  and  _166
REMARK   74  A    between atoms: _171  and  _173
REMARK   75  A    between atoms: _173  and  _174
REMARK   76  A    between atoms: _177  and  _179
REMARK   77  A    between atoms: _179  and  _180
REMARK   78  A    between atoms: _179  and  _182
REMARK   79  A    between atoms: _182  and  _183
REMARK   80  A    between atoms: _188  and  _190
REMARK   81  A    between atoms: _190  and  _191
REMARK   82  A    between atoms: _194  and  _196
REMARK   83  A    between atoms: _196  and  _197
REMARK   84  A    between atoms: _200  and  _202
REMARK   85  A    between atoms: _202  and  _203
REMARK   86  A    between atoms: _202  and  _205
REMARK   87  A    between atoms: _205  and  _206
REMARK   88  A    between atoms: _211  and  _213
REMARK   89  A    between atoms: _213  and  _214
REMARK   90  A    between atoms: _213  and  _216
REMARK   91  A    between atoms: _216  and  _217
REMARK   92  A    between atoms: _220  and  _222
REMARK   93  A    between atoms: _222  and  _223
REMARK   94  A    between atoms: _225  and  _227
REMARK   95  A    between atoms: _227  and  _228
REMARK   96  A    between atoms: _227  and  _230
REMARK   97  A    between atoms: _230  and  _231
REMARK   98  A    between atoms: _231  and  _232
REMARK   99  A    between atoms: _235  and  _237
REMARK  100  A    between atoms: _237  and  _238
REMARK  101  A    between atoms: _237  and  _240
REMARK  102  A    between atoms: _240  and  _241
REMARK  103  A    between atoms: _244  and  _246
REMARK  104  A    between atoms: _246  and  _247
REMARK  105  A    between atoms: _246  and  _249
REMARK  106  A    between atoms: _249  and  _250
REMARK  107  A    between atoms: _252  and  _254
REMARK  108  A    between atoms: _254  and  _255
REMARK  109  A    between atoms: _254  and  _257
REMARK  110  A    between atoms: _257  and  _258
REMARK  111  A    between atoms: _261  and  _263
REMARK  112  A    between atoms: _263  and  _264
REMARK  113  A    between atoms: _263  and  _266
REMARK  114  A    between atoms: _266  and  _267
REMARK  115  A    between atoms: _267  and  _268
REMARK  116  A    between atoms: _270  and  _272
REMARK  117  A    between atoms: _272  and  _273
REMARK  118  A    between atoms: _276  and  _278
REMARK  119  A    between atoms: _278  and  _279
REMARK  120  A    between atoms: _282  and  _284
REMARK  121  A    between atoms: _284  and  _285
REMARK  122  A    between atoms: _284  and  _287
REMARK  123  A    between atoms: _287  and  _288
REMARK  124  A    between atoms: _291  and  _293
REMARK  125  A    between atoms: _293  and  _294
REMARK  126  A    between atoms: _297  and  _299
REMARK  127  A    between atoms: _299  and  _300
REMARK  128  A    between atoms: _303  and  _305
REMARK  129  A    between atoms: _305  and  _306
REMARK  130  A    between atoms: _308  and  _310
REMARK  131  A    between atoms: _310  and  _311
REMARK  132  A    between atoms: _310  and  _313
REMARK  133  A    between atoms: _313  and  _314
REMARK  134  A    between atoms: _319  and  _321
REMARK  135  A    between atoms: _321  and  _322
REMARK  136  A    between atoms: _321  and  _324
REMARK  137  A    between atoms: _324  and  _325
REMARK  138  A    between atoms: _328  and  _330
REMARK  139  A    between atoms: _330  and  _331
REMARK  140  A    between atoms: _330  and  _333
REMARK  141  A    between atoms: _336  and  _338
REMARK  142  A    between atoms: _338  and  _339
REMARK  143  A    between atoms: _338  and  _341
REMARK  144  A    between atoms: _341  and  _342
REMARK  145  A    between atoms: _342  and  _343
REMARK  146  A    between atoms: _343  and  _344
REMARK  147  A    between atoms: _344  and  _345
REMARK  148  A    between atoms: _349  and  _351
REMARK  149  A    between atoms: _351  and  _352
REMARK  150  A    between atoms: _351  and  _354
REMARK  151  A    between atoms: _354  and  _355
REMARK  152  A    between atoms: _357  and  _359
REMARK  153  A    between atoms: _359  and  _360
REMARK  154  A    between atoms: _359  and  _362
REMARK  155  A    between atoms: _362  and  _363
REMARK  156  A    between atoms: _368  and  _369
REMARK  157  A    between atoms: _371  and  _373
REMARK  158  A    between atoms: _373  and  _374
REMARK  159  A    between atoms: _373  and  _376
REMARK  160  A    between atoms: _376  and  _377
REMARK  161  A    between atoms: _377  and  _378
REMARK  162  A    between atoms: _381  and  _383
REMARK  163  A    between atoms: _383  and  _384
REMARK  164  A    between atoms: _383  and  _386
REMARK  165  A    between atoms: _386  and  _387
REMARK  166  A    between atoms: _392  and  _394
REMARK  167  A    between atoms: _394  and  _395
REMARK  168  A    between atoms: _394  and  _397
REMARK  169  A    between atoms: _397  and  _398
REMARK  170  A    between atoms: _401  and  _403
REMARK  171  A    between atoms: _403  and  _404
REMARK  172  A    between atoms: _403  and  _406
REMARK  173  A    between atoms: _406  and  _407
REMARK  174  A    between atoms: _407  and  _408
REMARK  175  A    between atoms: _408  and  _409
REMARK  176  A    between atoms: _418  and  _420
REMARK  177  A    between atoms: _420  and  _421
REMARK  178  A    between atoms: _423  and  _425
REMARK  179  A    between atoms: _425  and  _426
REMARK  180  A    between atoms: _425  and  _428
REMARK  181  A    between atoms: _428  and  _429
REMARK  182  A    between atoms: _429  and  _430
REMARK  183  A    between atoms: _432  and  _434
REMARK  184  A    between atoms: _434  and  _435
REMARK  185  A    between atoms: _434  and  _437
REMARK  186  A    between atoms: _437  and  _438
REMARK  187  A    between atoms: _438  and  _439
REMARK  188  A    between atoms: _441  and  _443
REMARK  189  A    between atoms: _443  and  _444
REMARK  190  A    between atoms: _443  and  _446
REMARK  191  A    between atoms: _446  and  _447
REMARK  192  A    between atoms: _452  and  _454
REMARK  193  A    between atoms: _454  and  _455
REMARK  194  A    between atoms: _454  and  _457
REMARK  195  A    between atoms: _457  and  _458
REMARK  196  A    between atoms: _460  and  _462
REMARK  197  A    between atoms: _462  and  _463
REMARK  198  A    between atoms: _466  and  _468
REMARK  199  A    between atoms: _468  and  _469
REMARK  200  A    between atoms: _468  and  _471
REMARK  201  A    between atoms: _474  and  _476
REMARK  202  A    between atoms: _476  and  _477
REMARK  203  A    between atoms: _476  and  _479
REMARK  204  A    between atoms: _479  and  _480
REMARK  205  A    between atoms: _482  and  _484
REMARK  206  A    between atoms: _484  and  _485
REMARK  207  A    between atoms: _487  and  _489
REMARK  208  A    between atoms: _489  and  _490
REMARK  209  A    between atoms: _489  and  _492
REMARK  210  A    between atoms: _492  and  _493
REMARK  211  A    between atoms: _498  and  _500
REMARK  212  A    between atoms: _500  and  _501
REMARK  213  A    between atoms: _500  and  _503
REMARK  214  A    between atoms: _503  and  _504
REMARK  215  A    between atoms: _509  and  _510
REMARK  216  A    between atoms: _512  and  _514
REMARK  217  A    between atoms: _514  and  _515
REMARK  218  A    between atoms: _514  and  _517
REMARK  219  A    between atoms: _519  and  _521
REMARK  220  A    between atoms: _521  and  _522
REMARK  221  A    between atoms: _521  and  _524
REMARK  222  A    between atoms: _524  and  _525
REMARK  223  A    between atoms: _528  and  _530
REMARK  224  A    between atoms: _530  and  _531
REMARK  225  A    between atoms: _530  and  _533
REMARK  226  A    between atoms: _533  and  _534
REMARK  227  A    between atoms: _537  and  _539
REMARK  228  A    between atoms: _539  and  _540
REMARK  229  A    between atoms: _539  and  _542
REMARK  230  A    between atoms: _542  and  _543
REMARK  231  A    between atoms: _543  and  _544
REMARK  232  A    between atoms: _544  and  _545
REMARK  233  A    between atoms: _545  and  _546
REMARK  234  A    between atoms: _550  and  _552
REMARK  235  A    between atoms: _552  and  _553
REMARK  236  A    between atoms: _552  and  _555
REMARK  237  A    between atoms: _555  and  _556
REMARK  238  A    between atoms: _556  and  _557
REMARK  239  A    between atoms: _557  and  _558
REMARK  240  A    between atoms: _558  and  _559
REMARK  241  A    between atoms: _563  and  _565
REMARK  242  A    between atoms: _565  and  _566
REMARK  243  A    between atoms: _565  and  _568
REMARK  244  A    between atoms: _568  and  _569
REMARK  245  A    between atoms: _569  and  _570
REMARK  246  A    between atoms: _570  and  _571
REMARK  247  A    between atoms: _580  and  _582
REMARK  248  A    between atoms: _582  and  _583
REMARK  249  A    between atoms: _582  and  _585
REMARK  250  A    between atoms: _585  and  _586
REMARK  251  A    between atoms: _589  and  _591
REMARK  252  A    between atoms: _591  and  _592
REMARK  253  A    between atoms: _595  and  _597
REMARK  254  A    between atoms: _597  and  _598
REMARK  255  A    between atoms: _597  and  _600
REMARK  256  A    between atoms: _600  and  _601
REMARK  257  A    between atoms: _601  and  _602
REMARK                            x       y       z     vdW  Elec       q    Type
REMARK                         _______ _______ _______ _____ _____    ______ ____
ROOT
ATOM      1  C   GLU A   1      16.679  20.357  49.695  0.00  0.00    +0.238 C 
ATOM      2  N   ASN A   2      17.538  20.942  50.531  0.00  0.00    -0.298 N 
ATOM      3  H   ASN A   2      17.626  20.557  51.493  0.00  0.00    +0.150 HD
ATOM      4  O   GLU A   1      16.535  20.694  48.517  0.00  0.00    -0.274 OA
ENDROOT
BRANCH   1   5
ATOM      5  CA  GLU A   1      15.876  19.196  50.277  0.00  0.00    +0.145 C 
BRANCH   5   6
ATOM      6  N   GLU A   1      14.704  18.872  49.453  0.00  0.00    -0.238 NA
ATOM      7  H   GLU A   1      14.857  18.627  48.454  0.00  0.00    +0.142 HD
ENDBRANCH   5   6
BRANCH   5   8
ATOM      8  CB  GLU A   1      16.801  17.984  50.397  0.00  0.00    +0.038 C 
BRANCH   8   9
ATOM      9  CG  GLU A   1      16.156  16.766  51.031  0.00  0.00    +0.116 C 
BRANCH   9  10
ATOM     10  CD  GLU A   1      15.298  15.982  50.057  0.00  0.00    +0.365 C 
ATOM     11  OE2 GLU A   1      14.107  15.763  50.364  0.00  0.00    -0.246 OA
ATOM     12  OE1 GLU A   1      15.806  15.589  48.984  0.00  0.00    -0.246 OA
ENDBRANCH   9  10
ENDBRANCH   8   9
ENDBRANCH   5   8
ENDBRANCH   1   5
BRANCH   2  13
ATOM     13  CA  ASN A   2      18.366  22.100  50.169  0.00  0.00    +0.146 C 
BRANCH  13  14
ATOM     14  C   ASN A   2      17.538  23.210  49.526  0.00  0.00    +0.227 C 
ATOM     15  O   ASN A   2      17.918  23.767  48.495  0.00  0.00    -0.286 OA
ENDBRANCH  13  14
BRANCH  13  16
ATOM     16  CB  ASN A   2      19.519  21.693  49.231  0.00  0.00    +0.112 C 
BRANCH  16  17
ATOM     17  CG  ASN A   2      20.386  20.562  49.792  0.00  0.00    +0.222 C 
ATOM     18  ND2 ASN A   2      20.516  20.500  51.109  0.00  0.00    -0.329 N 
ATOM     19 HD21 ASN A   2      20.024  21.189  51.713  0.00  0.00    +0.145 HD
ATOM     20 HD22 ASN A   2      21.110  19.762  51.539  0.00  0.00    +0.145 HD
ATOM     21  OD1 ASN A   2      20.947  19.770  49.033  0.00  0.00    -0.275 OA
ENDBRANCH  16  17
ENDBRANCH  13  16
ENDBRANCH   2  13
TORSDOF 9
REMARK  Name = ../refined-set-2016/3cd5/3cd5_pocket.pdb
REMARK  257 active torsions:
REMARK  status: ('A' for Active; 'I' for Inactive)
REMARK    1  A    between atoms: _1  and  _3
REMARK    2  A    between atoms: _3  and  _4
REMARK    3  A    between atoms: _3  and  _6
REMARK    4  A    between atoms: _6  and  _7
REMARK    5  A    between atoms: _7  and  _8
REMARK    6  A    between atoms: _11  and  _13
REMARK    7  A    between atoms: _13  and  _14
REMARK    8  A    between atoms: _16  and  _18
REMARK    9  A    between atoms: _18  and  _19
REMARK   10  A    between atoms: _18  and  _21
REMARK   11  A    between atoms: _23  and  _25
REMARK   12  A    between atoms: _25  and  _26
REMARK   13  A    between atoms: _25  and  _28
REMARK   14  A    between atoms: _28  and  _29
REMARK   15  A    between atoms: _32  and  _34
REMARK   16  A    between atoms: _34  and  _35
REMARK   17  A    between atoms: _34  and  _37
REMARK   18  A    between atoms: _40  and  _42
REMARK   19  A    between atoms: _42  and  _43
REMARK   20  A    between atoms: _46  and  _48
REMARK   21  A    between atoms: _48  and  _49
REMARK   22  A    between atoms: _48  and  _51
REMARK   23  A    between atoms: _51  and  _52
REMARK   24  A    between atoms: _54  and  _56
REMARK   25  A    between atoms: _56  and  _57
REMARK   26  A    between atoms: _56  and  _59
REMARK   27  A    between atoms: _59  and  _60
REMARK   28  A    between atoms: _63  and  _65
REMARK   29  A    between atoms: _65  and  _66
REMARK   30  A    between atoms: _65  and  _68
REMARK   31  A    between atoms: _68  and  _69
REMARK   32  A    between atoms: _74  and  _76
REMARK   33  A    between atoms: _76  and  _77
REMARK   34  A    between atoms: _76  and  _79
REMARK   35  A    between atoms: _79  and  _80
REMARK   36  A    between atoms: _80  and  _81
REMARK   37  A    between atoms: _81  and  _82
REMARK   38  A    between atoms: _91  and  _93
REMARK   39  A    between atoms: _93  and  _94
REMARK   40  A    between atoms: _96  and  _98
REMARK   41  A    between atoms: _98  and  _99
REMARK   42  A    between atoms: _98  and  _101
REMARK   43  A    between atoms: _101  and  _102
REMARK   44  A    between atoms: _102  and  _103
REMARK   45  A    between atoms: _106  and  _108
REMARK   46  A    between atoms: _108  and  _109
REMARK   47  A    between atoms: _108  and  _111
REMARK   48  A    between atoms: _114  and  _116
REMARK   49  A    between atoms: _116  and  _117
REMARK   50  A    between atoms: _116  and  _119
REMARK   51  A    between atoms: _119  and  _120
REMARK   52  A    between atoms: _123  and  _125
REMARK   53  A    between atoms: _125  and  _126
REMARK   54  A    between atoms: _125  and  _128
REMARK   55  A    between atoms: _128  and  _129
REMARK   56  A    between atoms: _129  and  _130
REMARK   57  A    between atoms: _130  and  _131
REMARK   58  A    between atoms: _131  and  _132
REMARK   59  A    between atoms: _136  and  _138
REMARK   60  A    between atoms: _138  and  _139
REMARK   61  A    between atoms: _138  and  _141
REMARK   62  A    between atoms: _141  and  _142
REMARK   63  A    between atoms: _142  and  _143
REMARK   64  A    between atoms: _143  and  _144
REMARK   65  A    between atoms: _144  and  _145
REMARK   66  A    between atoms: _149  and  _151
REMARK   67  A    between atoms: _151  and  _152
REMARK   68  A    between atoms: _151  and  _154
REMARK   69  A    between atoms: _154  and  _155
REMARK   70  A    between atoms: _160  and  _162
REMARK   71  A    between atoms: _162  and  _163
REMARK   72  A    between atoms: _162  and  _165
REMARK   73  A    between atoms: _165  and  _166
REMARK   74  A    between atoms: _171  and  _173
REMARK   75  A    between atoms: _173  and  _174
REMARK   76  A    between atoms: _177  and  _179
REMARK   77  A    between atoms: _179  and  _180
REMARK   78  A    between atoms: _179  and  _182
REMARK   79  A    between atoms: _182  and  _183
REMARK   80  A    between atoms: _188  and  _190
REMARK   81  A    between atoms: _190  and  _191
REMARK   82  A    between atoms: _194  and  _196
REMARK   83  A    between atoms: _196  and  _197
REMARK   84  A    between atoms: _200  and  _202
REMARK   85  A    between atoms: _202  and  _203
REMARK   86  A    between atoms: _202  and  _205
REMARK   87  A    between atoms: _205  and  _206
REMARK   88  A    between atoms: _211  and  _213
REMARK   89  A    between atoms: _213  and  _214
REMARK   90  A    between atoms: _213  and  _216
REMARK   91  A    between atoms: _216  and  _217
REMARK   92  A    between atoms: _220  and  _222
REMARK   93  A    between atoms: _222  and  _223
REMARK   94  A    between atoms: _225  and  _227
REMARK   95  A    between atoms: _227  and  _228
REMARK   96  A    between atoms: _227  and  _230
REMARK   97  A    between atoms: _230  and  _231
REMARK   98  A    between atoms: _231  and  _232
REMARK   99  A    between atoms: _235  and  _237
REMARK  100  A    between atoms: _237  and  _238
REMARK  101  A    between atoms: _237  and  _240
REMARK  102  A    between atoms: _240  and  _241
REMARK  103  A    between atoms: _244  and  _246
REMARK  104  A    between atoms: _246  and  _247
REMARK  105  A    between atoms: _246  and  _249
REMARK  106  A    between atoms: _249  and  _250
REMARK  107  A    between atoms: _252  and  _254
REMARK  108  A    between atoms: _254  and  _255
REMARK  109  A    between atoms: _254  and  _257
REMARK  110  A    between atoms: _257  and  _258
REMARK  111  A    between atoms: _261  and  _263
REMARK  112  A    between atoms: _263  and  _264
REMARK  113  A    between atoms: _263  and  _266
REMARK  114  A    between atoms: _266  and  _267
REMARK  115  A    between atoms: _267  and  _268
REMARK  116  A    between atoms: _270  and  _272
REMARK  117  A    between atoms: _272  and  _273
REMARK  118  A    between atoms: _276  and  _278
REMARK  119  A    between atoms: _278  and  _279
REMARK  120  A    between atoms: _282  and  _284
REMARK  121  A    between atoms: _284  and  _285
REMARK  122  A    between atoms: _284  and  _287
REMARK  123  A    between atoms: _287  and  _288
REMARK  124  A    between atoms: _291  and  _293
REMARK  125  A    between atoms: _293  and  _294
REMARK  126  A    between atoms: _297  and  _299
REMARK  127  A    between atoms: _299  and  _300
REMARK  128  A    between atoms: _303  and  _305
REMARK  129  A    between atoms: _305  and  _306
REMARK  130  A    between atoms: _308  and  _310
REMARK  131  A    between atoms: _310  and  _311
REMARK  132  A    between atoms: _310  and  _313
REMARK  133  A    between atoms: _313  and  _314
REMARK  134  A    between atoms: _319  and  _321
REMARK  135  A    between atoms: _321  and  _322
REMARK  136  A    between atoms: _321  and  _324
REMARK  137  A    between atoms: _324  and  _325
REMARK  138  A    between atoms: _328  and  _330
REMARK  139  A    between atoms: _330  and  _331
REMARK  140  A    between atoms: _330  and  _333
REMARK  141  A    between atoms: _336  and  _338
REMARK  142  A    between atoms: _338  and  _339
REMARK  143  A    between atoms: _338  and  _341
REMARK  144  A    between atoms: _341  and  _342
REMARK  145  A    between atoms: _342  and  _343
REMARK  146  A    between atoms: _343  and  _344
REMARK  147  A    between atoms: _344  and  _345
REMARK  148  A    between atoms: _349  and  _351
REMARK  149  A    between atoms: _351  and  _352
REMARK  150  A    between atoms: _351  and  _354
REMARK  151  A    between atoms: _354  and  _355
REMARK  152  A    between atoms: _357  and  _359
REMARK  153  A    between atoms: _359  and  _360
REMARK  154  A    between atoms: _359  and  _362
REMARK  155  A    between atoms: _362  and  _363
REMARK  156  A    between atoms: _368  and  _369
REMARK  157  A    between atoms: _371  and  _373
REMARK  158  A    between atoms: _373  and  _374
REMARK  159  A    between atoms: _373  and  _376
REMARK  160  A    between atoms: _376  and  _377
REMARK  161  A    between atoms: _377  and  _378
REMARK  162  A    between atoms: _381  and  _383
REMARK  163  A    between atoms: _383  and  _384
REMARK  164  A    between atoms: _383  and  _386
REMARK  165  A    between atoms: _386  and  _387
REMARK  166  A    between atoms: _392  and  _394
REMARK  167  A    between atoms: _394  and  _395
REMARK  168  A    between atoms: _394  and  _397
REMARK  169  A    between atoms: _397  and  _398
REMARK  170  A    between atoms: _401  and  _403
REMARK  171  A    between atoms: _403  and  _404
REMARK  172  A    between atoms: _403  and  _406
REMARK  173  A    between atoms: _406  and  _407
REMARK  174  A    between atoms: _407  and  _408
REMARK  175  A    between atoms: _408  and  _409
REMARK  176  A    between atoms: _418  and  _420
REMARK  177  A    between atoms: _420  and  _421
REMARK  178  A    between atoms: _423  and  _425
REMARK  179  A    between atoms: _425  and  _426
REMARK  180  A    between atoms: _425  and  _428
REMARK  181  A    between atoms: _428  and  _429
REMARK  182  A    between atoms: _429  and  _430
REMARK  183  A    between atoms: _432  and  _434
REMARK  184  A    between atoms: _434  and  _435
REMARK  185  A    between atoms: _434  and  _437
REMARK  186  A    between atoms: _437  and  _438
REMARK  187  A    between atoms: _438  and  _439
REMARK  188  A    between atoms: _441  and  _443
REMARK  189  A    between atoms: _443  and  _444
REMARK  190  A    between atoms: _443  and  _446
REMARK  191  A    between atoms: _446  and  _447
REMARK  192  A    between atoms: _452  and  _454
REMARK  193  A    between atoms: _454  and  _455
REMARK  194  A    between atoms: _454  and  _457
REMARK  195  A    between atoms: _457  and  _458
REMARK  196  A    between atoms: _460  and  _462
REMARK  197  A    between atoms: _462  and  _463
REMARK  198  A    between atoms: _466  and  _468
REMARK  199  A    between atoms: _468  and  _469
REMARK  200  A    between atoms: _468  and  _471
REMARK  201  A    between atoms: _474  and  _476
REMARK  202  A    between atoms: _476  and  _477
REMARK  203  A    between atoms: _476  and  _479
REMARK  204  A    between atoms: _479  and  _480
REMARK  205  A    between atoms: _482  and  _484
REMARK  206  A    between atoms: _484  and  _485
REMARK  207  A    between atoms: _487  and  _489
REMARK  208  A    between atoms: _489  and  _490
REMARK  209  A    between atoms: _489  and  _492
REMARK  210  A    between atoms: _492  and  _493
REMARK  211  A    between atoms: _498  and  _500
REMARK  212  A    between atoms: _500  and  _501
REMARK  213  A    between atoms: _500  and  _503
REMARK  214  A    between atoms: _503  and  _504
REMARK  215  A    between atoms: _509  and  _510
REMARK  216  A    between atoms: _512  and  _514
REMARK  217  A    between atoms: _514  and  _515
REMARK  218  A    between atoms: _514  and  _517
REMARK  219  A    between atoms: _519  and  _521
REMARK  220  A    between atoms: _521  and  _522
REMARK  221  A    between atoms: _521  and  _524
REMARK  222  A    between atoms: _524  and  _525
REMARK  223  A    between atoms: _528  and  _530
REMARK  224  A    between atoms: _530  and  _531
REMARK  225  A    between atoms: _530  and  _533
REMARK  226  A    between atoms: _533  and  _534
REMARK  227  A    between atoms: _537  and  _539
REMARK  228  A    between atoms: _539  and  _540
REMARK  229  A    between atoms: _539  and  _542
REMARK  230  A    between atoms: _542  and  _543
REMARK  231  A    between atoms: _543  and  _544
REMARK  232  A    between atoms: _544  and  _545
REMARK  233  A    between atoms: _545  and  _546
REMARK  234  A    between atoms: _550  and  _552
REMARK  235  A    between atoms: _552  and  _553
REMARK  236  A    between atoms: _552  and  _555
REMARK  237  A    between atoms: _555  and  _556
REMARK  238  A    between atoms: _556  and  _557
REMARK  239  A    between atoms: _557  and  _558
REMARK  240  A    between atoms: _558  and  _559
REMARK  241  A    between atoms: _563  and  _565
REMARK  242  A    between atoms: _565  and  _566
REMARK  243  A    between atoms: _565  and  _568
REMARK  244  A    between atoms: _568  and  _569
REMARK  245  A    between atoms: _569  and  _570
REMARK  246  A    between atoms: _570  and  _571
REMARK  247  A    between atoms: _580  and  _582
REMARK  248  A    between atoms: _582  and  _583
REMARK  249  A    between atoms: _582  and  _585
REMARK  250  A    between atoms: _585  and  _586
REMARK  251  A    between atoms: _589  and  _591
REMARK  252  A    between atoms: _591  and  _592
REMARK  253  A    between atoms: _595  and  _597
REMARK  254  A    between atoms: _597  and  _598
REMARK  255  A    between atoms: _597  and  _600
REMARK  256  A    between atoms: _600  and  _601
REMARK  257  A    between atoms: _601  and  _602
REMARK                            x       y       z     vdW  Elec       q    Type
REMARK                         _______ _______ _______ _____ _____    ______ ____
ROOT
ATOM      1  CA  ARG A   2       7.292  -2.725  41.313  0.00  0.00    +0.149 C 
ENDROOT
BRANCH   1   3
ATOM      2  C   THR A   1       5.151  -1.724  40.687  0.00  0.00    +0.241 C 
ATOM      3  N   ARG A   2       5.863  -2.773  41.077  0.00  0.00    -0.297 N 
ATOM      4  H   ARG A   2       5.370  -3.677  41.221  0.00  0.00    +0.150 HD
ATOM      5  O   THR A   1       5.552  -0.565  40.744  0.00  0.00    -0.274 OA
BRANCH   2   6
ATOM      6  CA  THR A   1       3.762  -2.067  40.189  0.00  0.00    +0.172 C 
BRANCH   6   7
ATOM      7  N   THR A   1       2.849  -0.934  40.193  0.00  0.00    -0.236 NA
ATOM      8  H   THR A   1       3.099  -0.065  39.679  0.00  0.00    +0.142 HD
ENDBRANCH   6   7
BRANCH   6   9
ATOM      9  CB  THR A   1       3.870  -2.686  38.786  0.00  0.00    +0.135 C 
ATOM     10  CG2 THR A   1       2.493  -3.025  38.221  0.00  0.00    +0.034 C 
BRANCH   9  11
ATOM     11  OG1 THR A   1       4.399  -1.724  37.870  0.00  0.00    -0.383 OA
ATOM     12  HG1 THR A   1       4.466  -2.129  36.969  0.00  0.00    +0.210 HD
ENDBRANCH   9  11
ENDBRANCH   6   9
ENDBRANCH   2   6
ENDBRANCH   1   3
BRANCH   1  13
ATOM     13  C   ARG A   2       7.881  -3.998  40.714  0.00  0.00    +0.241 C 
ATOM     14  O   ARG A   2       7.312  -5.077  40.858  0.00  0.00    -0.273 OA
ATOM     15  N   GLY A   3       9.021  -3.866  40.043  0.00  0.00    -0.296 N 
ATOM     16  H   GLY A   3       9.521  -2.955  40.076  0.00  0.00    +0.150 HD
BRANCH  15  17
ATOM     17  CA  GLY A   3       9.591  -4.953  39.265  0.00  0.00    +0.163 C 
BRANCH  17  18
ATOM     18  C   GLY A   3      11.019  -5.271  39.662  0.00  0.00    +0.229 C 
ATOM     19  O   GLY A   3      11.930  -5.064  38.865  0.00  0.00    -0.286 OA
ENDBRANCH  17  18
ENDBRANCH  15  17
ENDBRANCH   1  13
BRANCH   1  20
ATOM     20  CB  ARG A   2       7.566  -2.628  42.805  0.00  0.00    +0.033 C 
BRANCH  20  21
ATOM     21  CG  ARG A   2       9.007  -2.329  43.173  0.00  0.00    +0.045 C 
BRANCH  21  22
ATOM     22  CD  ARG A   2       9.285  -0.874  43.494  0.00  0.00    +0.174 C 
BRANCH  22  23
ATOM     23  NE  ARG A   2       9.819  -0.194  42.325  0.00  0.00    -0.265 N 
ATOM     24  CZ  ARG A   2      10.598   0.876  42.353  0.00  0.00    +0.342 C 
ATOM     25  NH2 ARG A   2      10.946   1.449  43.498  0.00  0.00    -0.292 N 
ATOM     26 HH21 ARG A   2      10.606   1.058  44.400  0.00  0.00    +0.255 HD
ATOM     27 HH22 ARG A   2      11.559   2.289  43.494  0.00  0.00    +0.255 HD
ATOM     28  NH1 ARG A   2      11.027   1.389  41.211  0.00  0.00    -0.292 N 
ATOM     29 HH11 ARG A   2      11.640   2.229  41.216  0.00  0.00    +0.255 HD
ATOM     30 HH12 ARG A   2      10.751   0.952  40.308  0.00  0.00    +0.255 HD
ATOM     31  HE  ARG A   2       9.569  -0.579  41.392  0.00  0.00    +0.259 HD
ENDBRANCH  22  23
ENDBRANCH  21  22
ENDBRANCH  20  21
ENDBRANCH   1  20
TORSDOF 12
REMARK  Name = ../refined-set-2016/3cd5/3cd5_pocket.pdb
REMARK  257 active torsions:
REMARK  status: ('A' for Active; 'I' for Inactive)
REMARK    1  A    between atoms: _1  and  _3
REMARK    2  A    between atoms: _3  and  _4
REMARK    3  A    between atoms: _3  and  _6
REMARK    4  A    between atoms: _6  and  _7
REMARK    5  A    between atoms: _7  and  _8
REMARK    6  A    between atoms: _11  and  _13
REMARK    7  A    between atoms: _13  and  _14
REMARK    8  A    between atoms: _16  and  _18
REMARK    9  A    between atoms: _18  and  _19
REMARK   10  A    between atoms: _18  and  _21
REMARK   11  A    between atoms: _23  and  _25
REMARK   12  A    between atoms: _25  and  _26
REMARK   13  A    between atoms: _25  and  _28
REMARK   14  A    between atoms: _28  and  _29
REMARK   15  A    between atoms: _32  and  _34
REMARK   16  A    between atoms: _34  and  _35
REMARK   17  A    between atoms: _34  and  _37
REMARK   18  A    between atoms: _40  and  _42
REMARK   19  A    between atoms: _42  and  _43
REMARK   20  A    between atoms: _46  and  _48
REMARK   21  A    between atoms: _48  and  _49
REMARK   22  A    between atoms: _48  and  _51
REMARK   23  A    between atoms: _51  and  _52
REMARK   24  A    between atoms: _54  and  _56
REMARK   25  A    between atoms: _56  and  _57
REMARK   26  A    between atoms: _56  and  _59
REMARK   27  A    between atoms: _59  and  _60
REMARK   28  A    between atoms: _63  and  _65
REMARK   29  A    between atoms: _65  and  _66
REMARK   30  A    between atoms: _65  and  _68
REMARK   31  A    between atoms: _68  and  _69
REMARK   32  A    between atoms: _74  and  _76
REMARK   33  A    between atoms: _76  and  _77
REMARK   34  A    between atoms: _76  and  _79
REMARK   35  A    between atoms: _79  and  _80
REMARK   36  A    between atoms: _80  and  _81
REMARK   37  A    between atoms: _81  and  _82
REMARK   38  A    between atoms: _91  and  _93
REMARK   39  A    between atoms: _93  and  _94
REMARK   40  A    between atoms: _96  and  _98
REMARK   41  A    between atoms: _98  and  _99
REMARK   42  A    between atoms: _98  and  _101
REMARK   43  A    between atoms: _101  and  _102
REMARK   44  A    between atoms: _102  and  _103
REMARK   45  A    between atoms: _106  and  _108
REMARK   46  A    between atoms: _108  and  _109
REMARK   47  A    between atoms: _108  and  _111
REMARK   48  A    between atoms: _114  and  _116
REMARK   49  A    between atoms: _116  and  _117
REMARK   50  A    between atoms: _116  and  _119
REMARK   51  A    between atoms: _119  and  _120
REMARK   52  A    between atoms: _123  and  _125
REMARK   53  A    between atoms: _125  and  _126
REMARK   54  A    between atoms: _125  and  _128
REMARK   55  A    between atoms: _128  and  _129
REMARK   56  A    between atoms: _129  and  _130
REMARK   57  A    between atoms: _130  and  _131
REMARK   58  A    between atoms: _131  and  _132
REMARK   59  A    between atoms: _136  and  _138
REMARK   60  A    between atoms: _138  and  _139
REMARK   61  A    between atoms: _138  and  _141
REMARK   62  A    between atoms: _141  and  _142
REMARK   63  A    between atoms: _142  and  _143
REMARK   64  A    between atoms: _143  and  _144
REMARK   65  A    between atoms: _144  and  _145
REMARK   66  A    between atoms: _149  and  _151
REMARK   67  A    between atoms: _151  and  _152
REMARK   68  A    between atoms: _151  and  _154
REMARK   69  A    between atoms: _154  and  _155
REMARK   70  A    between atoms: _160  and  _162
REMARK   71  A    between atoms: _162  and  _163
REMARK   72  A    between atoms: _162  and  _165
REMARK   73  A    between atoms: _165  and  _166
REMARK   74  A    between atoms: _171  and  _173
REMARK   75  A    between atoms: _173  and  _174
REMARK   76  A    between atoms: _177  and  _179
REMARK   77  A    between atoms: _179  and  _180
REMARK   78  A    between atoms: _179  and  _182
REMARK   79  A    between atoms: _182  and  _183
REMARK   80  A    between atoms: _188  and  _190
REMARK   81  A    between atoms: _190  and  _191
REMARK   82  A    between atoms: _194  and  _196
REMARK   83  A    between atoms: _196  and  _197
REMARK   84  A    between atoms: _200  and  _202
REMARK   85  A    between atoms: _202  and  _203
REMARK   86  A    between atoms: _202  and  _205
REMARK   87  A    between atoms: _205  and  _206
REMARK   88  A    between atoms: _211  and  _213
REMARK   89  A    between atoms: _213  and  _214
REMARK   90  A    between atoms: _213  and  _216
REMARK   91  A    between atoms: _216  and  _217
REMARK   92  A    between atoms: _220  and  _222
REMARK   93  A    between atoms: _222  and  _223
REMARK   94  A    between atoms: _225  and  _227
REMARK   95  A    between atoms: _227  and  _228
REMARK   96  A    between atoms: _227  and  _230
REMARK   97  A    between atoms: _230  and  _231
REMARK   98  A    between atoms: _231  and  _232
REMARK   99  A    between atoms: _235  and  _237
REMARK  100  A    between atoms: _237  and  _238
REMARK  101  A    between atoms: _237  and  _240
REMARK  102  A    between atoms: _240  and  _241
REMARK  103  A    between atoms: _244  and  _246
REMARK  104  A    between atoms: _246  and  _247
REMARK  105  A    between atoms: _246  and  _249
REMARK  106  A    between atoms: _249  and  _250
REMARK  107  A    between atoms: _252  and  _254
REMARK  108  A    between atoms: _254  and  _255
REMARK  109  A    between atoms: _254  and  _257
REMARK  110  A    between atoms: _257  and  _258
REMARK  111  A    between atoms: _261  and  _263
REMARK  112  A    between atoms: _263  and  _264
REMARK  113  A    between atoms: _263  and  _266
REMARK  114  A    between atoms: _266  and  _267
REMARK  115  A    between atoms: _267  and  _268
REMARK  116  A    between atoms: _270  and  _272
REMARK  117  A    between atoms: _272  and  _273
REMARK  118  A    between atoms: _276  and  _278
REMARK  119  A    between atoms: _278  and  _279
REMARK  120  A    between atoms: _282  and  _284
REMARK  121  A    between atoms: _284  and  _285
REMARK  122  A    between atoms: _284  and  _287
REMARK  123  A    between atoms: _287  and  _288
REMARK  124  A    between atoms: _291  and  _293
REMARK  125  A    between atoms: _293  and  _294
REMARK  126  A    between atoms: _297  and  _299
REMARK  127  A    between atoms: _299  and  _300
REMARK  128  A    between atoms: _303  and  _305
REMARK  129  A    between atoms: _305  and  _306
REMARK  130  A    between atoms: _308  and  _310
REMARK  131  A    between atoms: _310  and  _311
REMARK  132  A    between atoms: _310  and  _313
REMARK  133  A    between atoms: _313  and  _314
REMARK  134  A    between atoms: _319  and  _321
REMARK  135  A    between atoms: _321  and  _322
REMARK  136  A    between atoms: _321  and  _324
REMARK  137  A    between atoms: _324  and  _325
REMARK  138  A    between atoms: _328  and  _330
REMARK  139  A    between atoms: _330  and  _331
REMARK  140  A    between atoms: _330  and  _333
REMARK  141  A    between atoms: _336  and  _338
REMARK  142  A    between atoms: _338  and  _339
REMARK  143  A    between atoms: _338  and  _341
REMARK  144  A    between atoms: _341  and  _342
REMARK  145  A    between atoms: _342  and  _343
REMARK  146  A    between atoms: _343  and  _344
REMARK  147  A    between atoms: _344  and  _345
REMARK  148  A    between atoms: _349  and  _351
REMARK  149  A    between atoms: _351  and  _352
REMARK  150  A    between atoms: _351  and  _354
REMARK  151  A    between atoms: _354  and  _355
REMARK  152  A    between atoms: _357  and  _359
REMARK  153  A    between atoms: _359  and  _360
REMARK  154  A    between atoms: _359  and  _362
REMARK  155  A    between atoms: _362  and  _363
REMARK  156  A    between atoms: _368  and  _369
REMARK  157  A    between atoms: _371  and  _373
REMARK  158  A    between atoms: _373  and  _374
REMARK  159  A    between atoms: _373  and  _376
REMARK  160  A    between atoms: _376  and  _377
REMARK  161  A    between atoms: _377  and  _378
REMARK  162  A    between atoms: _381  and  _383
REMARK  163  A    between atoms: _383  and  _384
REMARK  164  A    between atoms: _383  and  _386
REMARK  165  A    between atoms: _386  and  _387
REMARK  166  A    between atoms: _392  and  _394
REMARK  167  A    between atoms: _394  and  _395
REMARK  168  A    between atoms: _394  and  _397
REMARK  169  A    between atoms: _397  and  _398
REMARK  170  A    between atoms: _401  and  _403
REMARK  171  A    between atoms: _403  and  _404
REMARK  172  A    between atoms: _403  and  _406
REMARK  173  A    between atoms: _406  and  _407
REMARK  174  A    between atoms: _407  and  _408
REMARK  175  A    between atoms: _408  and  _409
REMARK  176  A    between atoms: _418  and  _420
REMARK  177  A    between atoms: _420  and  _421
REMARK  178  A    between atoms: _423  and  _425
REMARK  179  A    between atoms: _425  and  _426
REMARK  180  A    between atoms: _425  and  _428
REMARK  181  A    between atoms: _428  and  _429
REMARK  182  A    between atoms: _429  and  _430
REMARK  183  A    between atoms: _432  and  _434
REMARK  184  A    between atoms: _434  and  _435
REMARK  185  A    between atoms: _434  and  _437
REMARK  186  A    between atoms: _437  and  _438
REMARK  187  A    between atoms: _438  and  _439
REMARK  188  A    between atoms: _441  and  _443
REMARK  189  A    between atoms: _443  and  _444
REMARK  190  A    between atoms: _443  and  _446
REMARK  191  A    between atoms: _446  and  _447
REMARK  192  A    between atoms: _452  and  _454
REMARK  193  A    between atoms: _454  and  _455
REMARK  194  A    between atoms: _454  and  _457
REMARK  195  A    between atoms: _457  and  _458
REMARK  196  A    between atoms: _460  and  _462
REMARK  197  A    between atoms: _462  and  _463
REMARK  198  A    between atoms: _466  and  _468
REMARK  199  A    between atoms: _468  and  _469
REMARK  200  A    between atoms: _468  and  _471
REMARK  201  A    between atoms: _474  and  _476
REMARK  202  A    between atoms: _476  and  _477
REMARK  203  A    between atoms: _476  and  _479
REMARK  204  A    between atoms: _479  and  _480
REMARK  205  A    between atoms: _482  and  _484
REMARK  206  A    between atoms: _484  and  _485
REMARK  207  A    between atoms: _487  and  _489
REMARK  208  A    between atoms: _489  and  _490
REMARK  209  A    between atoms: _489  and  _492
REMARK  210  A    between atoms: _492  and  _493
REMARK  211  A    between atoms: _498  and  _500
REMARK  212  A    between atoms: _500  and  _501
REMARK  213  A    between atoms: _500  and  _503
REMARK  214  A    between atoms: _503  and  _504
REMARK  215  A    between atoms: _509  and  _510
REMARK  216  A    between atoms: _512  and  _514
REMARK  217  A    between atoms: _514  and  _515
REMARK  218  A    between atoms: _514  and  _517
REMARK  219  A    between atoms: _519  and  _521
REMARK  220  A    between atoms: _521  and  _522
REMARK  221  A    between atoms: _521  and  _524
REMARK  222  A    between atoms: _524  and  _525
REMARK  223  A    between atoms: _528  and  _530
REMARK  224  A    between atoms: _530  and  _531
REMARK  225  A    between atoms: _530  and  _533
REMARK  226  A    between atoms: _533  and  _534
REMARK  227  A    between atoms: _537  and  _539
REMARK  228  A    between atoms: _539  and  _540
REMARK  229  A    between atoms: _539  and  _542
REMARK  230  A    between atoms: _542  and  _543
REMARK  231  A    between atoms: _543  and  _544
REMARK  232  A    between atoms: _544  and  _545
REMARK  233  A    between atoms: _545  and  _546
REMARK  234  A    between atoms: _550  and  _552
REMARK  235  A    between atoms: _552  and  _553
REMARK  236  A    between atoms: _552  and  _555
REMARK  237  A    between atoms: _555  and  _556
REMARK  238  A    between atoms: _556  and  _557
REMARK  239  A    between atoms: _557  and  _558
REMARK  240  A    between atoms: _558  and  _559
REMARK  241  A    between atoms: _563  and  _565
REMARK  242  A    between atoms: _565  and  _566
REMARK  243  A    between atoms: _565  and  _568
REMARK  244  A    between atoms: _568  and  _569
REMARK  245  A    between atoms: _569  and  _570
REMARK  246  A    between atoms: _570  and  _571
REMARK  247  A    between atoms: _580  and  _582
REMARK  248  A    between atoms: _582  and  _583
REMARK  249  A    between atoms: _582  and  _585
REMARK  250  A    between atoms: _585  and  _586
REMARK  251  A    between atoms: _589  and  _591
REMARK  252  A    between atoms: _591  and  _592
REMARK  253  A    between atoms: _595  and  _597
REMARK  254  A    between atoms: _597  and  _598
REMARK  255  A    between atoms: _597  and  _600
REMARK  256  A    between atoms: _600  and  _601
REMARK  257  A    between atoms: _601  and  _602
REMARK                            x       y       z     vdW  Elec       q    Type
REMARK                         _______ _______ _______ _____ _____    ______ ____
ROOT
ATOM      1  CA  MET A   1      -0.146   6.501  43.781  0.00  0.00    +0.134 C 
ENDROOT
BRANCH   1   2
ATOM      2  N   MET A   1      -0.706   6.919  45.060  0.00  0.00    -0.239 NA
ATOM      3  H   MET A   1      -0.308   7.753  45.538  0.00  0.00    +0.142 HD
ENDBRANCH   1   2
BRANCH   1   4
ATOM      4  C   MET A   1       0.422   5.086  43.910  0.00  0.00    +0.224 C 
ATOM      5  O   MET A   1       0.339   4.289  42.972  0.00  0.00    -0.287 OA
ENDBRANCH   1   4
BRANCH   1   6
ATOM      6  CB  MET A   1       0.917   7.498  43.308  0.00  0.00    +0.037 C 
BRANCH   6   7
ATOM      7  CG  MET A   1       1.434   7.236  41.907  0.00  0.00    +0.059 C 
BRANCH   7   8
ATOM      8  SD  MET A   1       3.049   6.443  41.940  0.00  0.00    -0.139 S 
ATOM      9  CE  MET A   1       4.080   7.866  42.391  0.00  0.00    +0.069 C 
ENDBRANCH   7   8
ENDBRANCH   6   7
ENDBRANCH   1   6
TORSDOF 5
REMARK  Name = ../refined-set-2016/3cd5/3cd5_pocket.pdb
REMARK  257 active torsions:
REMARK  status: ('A' for Active; 'I' for Inactive)
REMARK    1  A    between atoms: _1  and  _3
REMARK    2  A    between atoms: _3  and  _4
REMARK    3  A    between atoms: _3  and  _6
REMARK    4  A    between atoms: _6  and  _7
REMARK    5  A    between atoms: _7  and  _8
REMARK    6  A    between atoms: _11  and  _13
REMARK    7  A    between atoms: _13  and  _14
REMARK    8  A    between atoms: _16  and  _18
REMARK    9  A    between atoms: _18  and  _19
REMARK   10  A    between atoms: _18  and  _21
REMARK   11  A    between atoms: _23  and  _25
REMARK   12  A    between atoms: _25  and  _26
REMARK   13  A    between atoms: _25  and  _28
REMARK   14  A    between atoms: _28  and  _29
REMARK   15  A    between atoms: _32  and  _34
REMARK   16  A    between atoms: _34  and  _35
REMARK   17  A    between atoms: _34  and  _37
REMARK   18  A    between atoms: _40  and  _42
REMARK   19  A    between atoms: _42  and  _43
REMARK   20  A    between atoms: _46  and  _48
REMARK   21  A    between atoms: _48  and  _49
REMARK   22  A    between atoms: _48  and  _51
REMARK   23  A    between atoms: _51  and  _52
REMARK   24  A    between atoms: _54  and  _56
REMARK   25  A    between atoms: _56  and  _57
REMARK   26  A    between atoms: _56  and  _59
REMARK   27  A    between atoms: _59  and  _60
REMARK   28  A    between atoms: _63  and  _65
REMARK   29  A    between atoms: _65  and  _66
REMARK   30  A    between atoms: _65  and  _68
REMARK   31  A    between atoms: _68  and  _69
REMARK   32  A    between atoms: _74  and  _76
REMARK   33  A    between atoms: _76  and  _77
REMARK   34  A    between atoms: _76  and  _79
REMARK   35  A    between atoms: _79  and  _80
REMARK   36  A    between atoms: _80  and  _81
REMARK   37  A    between atoms: _81  and  _82
REMARK   38  A    between atoms: _91  and  _93
REMARK   39  A    between atoms: _93  and  _94
REMARK   40  A    between atoms: _96  and  _98
REMARK   41  A    between atoms: _98  and  _99
REMARK   42  A    between atoms: _98  and  _101
REMARK   43  A    between atoms: _101  and  _102
REMARK   44  A    between atoms: _102  and  _103
REMARK   45  A    between atoms: _106  and  _108
REMARK   46  A    between atoms: _108  and  _109
REMARK   47  A    between atoms: _108  and  _111
REMARK   48  A    between atoms: _114  and  _116
REMARK   49  A    between atoms: _116  and  _117
REMARK   50  A    between atoms: _116  and  _119
REMARK   51  A    between atoms: _119  and  _120
REMARK   52  A    between atoms: _123  and  _125
REMARK   53  A    between atoms: _125  and  _126
REMARK   54  A    between atoms: _125  and  _128
REMARK   55  A    between atoms: _128  and  _129
REMARK   56  A    between atoms: _129  and  _130
REMARK   57  A    between atoms: _130  and  _131
REMARK   58  A    between atoms: _131  and  _132
REMARK   59  A    between atoms: _136  and  _138
REMARK   60  A    between atoms: _138  and  _139
REMARK   61  A    between atoms: _138  and  _141
REMARK   62  A    between atoms: _141  and  _142
REMARK   63  A    between atoms: _142  and  _143
REMARK   64  A    between atoms: _143  and  _144
REMARK   65  A    between atoms: _144  and  _145
REMARK   66  A    between atoms: _149  and  _151
REMARK   67  A    between atoms: _151  and  _152
REMARK   68  A    between atoms: _151  and  _154
REMARK   69  A    between atoms: _154  and  _155
REMARK   70  A    between atoms: _160  and  _162
REMARK   71  A    between atoms: _162  and  _163
REMARK   72  A    between atoms: _162  and  _165
REMARK   73  A    between atoms: _165  and  _166
REMARK   74  A    between atoms: _171  and  _173
REMARK   75  A    between atoms: _173  and  _174
REMARK   76  A    between atoms: _177  and  _179
REMARK   77  A    between atoms: _179  and  _180
REMARK   78  A    between atoms: _179  and  _182
REMARK   79  A    between atoms: _182  and  _183
REMARK   80  A    between atoms: _188  and  _190
REMARK   81  A    between atoms: _190  and  _191
REMARK   82  A    between atoms: _194  and  _196
REMARK   83  A    between atoms: _196  and  _197
REMARK   84  A    between atoms: _200  and  _202
REMARK   85  A    between atoms: _202  and  _203
REMARK   86  A    between atoms: _202  and  _205
REMARK   87  A    between atoms: _205  and  _206
REMARK   88  A    between atoms: _211  and  _213
REMARK   89  A    between atoms: _213  and  _214
REMARK   90  A    between atoms: _213  and  _216
REMARK   91  A    between atoms: _216  and  _217
REMARK   92  A    between atoms: _220  and  _222
REMARK   93  A    between atoms: _222  and  _223
REMARK   94  A    between atoms: _225  and  _227
REMARK   95  A    between atoms: _227  and  _228
REMARK   96  A    between atoms: _227  and  _230
REMARK   97  A    between atoms: _230  and  _231
REMARK   98  A    between atoms: _231  and  _232
REMARK   99  A    between atoms: _235  and  _237
REMARK  100  A    between atoms: _237  and  _238
REMARK  101  A    between atoms: _237  and  _240
REMARK  102  A    between atoms: _240  and  _241
REMARK  103  A    between atoms: _244  and  _246
REMARK  104  A    between atoms: _246  and  _247
REMARK  105  A    between atoms: _246  and  _249
REMARK  106  A    between atoms: _249  and  _250
REMARK  107  A    between atoms: _252  and  _254
REMARK  108  A    between atoms: _254  and  _255
REMARK  109  A    between atoms: _254  and  _257
REMARK  110  A    between atoms: _257  and  _258
REMARK  111  A    between atoms: _261  and  _263
REMARK  112  A    between atoms: _263  and  _264
REMARK  113  A    between atoms: _263  and  _266
REMARK  114  A    between atoms: _266  and  _267
REMARK  115  A    between atoms: _267  and  _268
REMARK  116  A    between atoms: _270  and  _272
REMARK  117  A    between atoms: _272  and  _273
REMARK  118  A    between atoms: _276  and  _278
REMARK  119  A    between atoms: _278  and  _279
REMARK  120  A    between atoms: _282  and  _284
REMARK  121  A    between atoms: _284  and  _285
REMARK  122  A    between atoms: _284  and  _287
REMARK  123  A    between atoms: _287  and  _288
REMARK  124  A    between atoms: _291  and  _293
REMARK  125  A    between atoms: _293  and  _294
REMARK  126  A    between atoms: _297  and  _299
REMARK  127  A    between atoms: _299  and  _300
REMARK  128  A    between atoms: _303  and  _305
REMARK  129  A    between atoms: _305  and  _306
REMARK  130  A    between atoms: _308  and  _310
REMARK  131  A    between atoms: _310  and  _311
REMARK  132  A    between atoms: _310  and  _313
REMARK  133  A    between atoms: _313  and  _314
REMARK  134  A    between atoms: _319  and  _321
REMARK  135  A    between atoms: _321  and  _322
REMARK  136  A    between atoms: _321  and  _324
REMARK  137  A    between atoms: _324  and  _325
REMARK  138  A    between atoms: _328  and  _330
REMARK  139  A    between atoms: _330  and  _331
REMARK  140  A    between atoms: _330  and  _333
REMARK  141  A    between atoms: _336  and  _338
REMARK  142  A    between atoms: _338  and  _339
REMARK  143  A    between atoms: _338  and  _341
REMARK  144  A    between atoms: _341  and  _342
REMARK  145  A    between atoms: _342  and  _343
REMARK  146  A    between atoms: _343  and  _344
REMARK  147  A    between atoms: _344  and  _345
REMARK  148  A    between atoms: _349  and  _351
REMARK  149  A    between atoms: _351  and  _352
REMARK  150  A    between atoms: _351  and  _354
REMARK  151  A    between atoms: _354  and  _355
REMARK  152  A    between atoms: _357  and  _359
REMARK  153  A    between atoms: _359  and  _360
REMARK  154  A    between atoms: _359  and  _362
REMARK  155  A    between atoms: _362  and  _363
REMARK  156  A    between atoms: _368  and  _369
REMARK  157  A    between atoms: _371  and  _373
REMARK  158  A    between atoms: _373  and  _374
REMARK  159  A    between atoms: _373  and  _376
REMARK  160  A    between atoms: _376  and  _377
REMARK  161  A    between atoms: _377  and  _378
REMARK  162  A    between atoms: _381  and  _383
REMARK  163  A    between atoms: _383  and  _384
REMARK  164  A    between atoms: _383  and  _386
REMARK  165  A    between atoms: _386  and  _387
REMARK  166  A    between atoms: _392  and  _394
REMARK  167  A    between atoms: _394  and  _395
REMARK  168  A    between atoms: _394  and  _397
REMARK  169  A    between atoms: _397  and  _398
REMARK  170  A    between atoms: _401  and  _403
REMARK  171  A    between atoms: _403  and  _404
REMARK  172  A    between atoms: _403  and  _406
REMARK  173  A    between atoms: _406  and  _407
REMARK  174  A    between atoms: _407  and  _408
REMARK  175  A    between atoms: _408  and  _409
REMARK  176  A    between atoms: _418  and  _420
REMARK  177  A    between atoms: _420  and  _421
REMARK  178  A    between atoms: _423  and  _425
REMARK  179  A    between atoms: _425  and  _426
REMARK  180  A    between atoms: _425  and  _428
REMARK  181  A    between atoms: _428  and  _429
REMARK  182  A    between atoms: _429  and  _430
REMARK  183  A    between atoms: _432  and  _434
REMARK  184  A    between atoms: _434  and  _435
REMARK  185  A    between atoms: _434  and  _437
REMARK  186  A    between atoms: _437  and  _438
REMARK  187  A    between atoms: _438  and  _439
REMARK  188  A    between atoms: _441  and  _443
REMARK  189  A    between atoms: _443  and  _444
REMARK  190  A    between atoms: _443  and  _446
REMARK  191  A    between atoms: _446  and  _447
REMARK  192  A    between atoms: _452  and  _454
REMARK  193  A    between atoms: _454  and  _455
REMARK  194  A    between atoms: _454  and  _457
REMARK  195  A    between atoms: _457  and  _458
REMARK  196  A    between atoms: _460  and  _462
REMARK  197  A    between atoms: _462  and  _463
REMARK  198  A    between atoms: _466  and  _468
REMARK  199  A    between atoms: _468  and  _469
REMARK  200  A    between atoms: _468  and  _471
REMARK  201  A    between atoms: _474  and  _476
REMARK  202  A    between atoms: _476  and  _477
REMARK  203  A    between atoms: _476  and  _479
REMARK  204  A    between atoms: _479  and  _480
REMARK  205  A    between atoms: _482  and  _484
REMARK  206  A    between atoms: _484  and  _485
REMARK  207  A    between atoms: _487  and  _489
REMARK  208  A    between atoms: _489  and  _490
REMARK  209  A    between atoms: _489  and  _492
REMARK  210  A    between atoms: _492  and  _493
REMARK  211  A    between atoms: _498  and  _500
REMARK  212  A    between atoms: _500  and  _501
REMARK  213  A    between atoms: _500  and  _503
REMARK  214  A    between atoms: _503  and  _504
REMARK  215  A    between atoms: _509  and  _510
REMARK  216  A    between atoms: _512  and  _514
REMARK  217  A    between atoms: _514  and  _515
REMARK  218  A    between atoms: _514  and  _517
REMARK  219  A    between atoms: _519  and  _521
REMARK  220  A    between atoms: _521  and  _522
REMARK  221  A    between atoms: _521  and  _524
REMARK  222  A    between atoms: _524  and  _525
REMARK  223  A    between atoms: _528  and  _530
REMARK  224  A    between atoms: _530  and  _531
REMARK  225  A    between atoms: _530  and  _533
REMARK  226  A    between atoms: _533  and  _534
REMARK  227  A    between atoms: _537  and  _539
REMARK  228  A    between atoms: _539  and  _540
REMARK  229  A    between atoms: _539  and  _542
REMARK  230  A    between atoms: _542  and  _543
REMARK  231  A    between atoms: _543  and  _544
REMARK  232  A    between atoms: _544  and  _545
REMARK  233  A    between atoms: _545  and  _546
REMARK  234  A    between atoms: _550  and  _552
REMARK  235  A    between atoms: _552  and  _553
REMARK  236  A    between atoms: _552  and  _555
REMARK  237  A    between atoms: _555  and  _556
REMARK  238  A    between atoms: _556  and  _557
REMARK  239  A    between atoms: _557  and  _558
REMARK  240  A    between atoms: _558  and  _559
REMARK  241  A    between atoms: _563  and  _565
REMARK  242  A    between atoms: _565  and  _566
REMARK  243  A    between atoms: _565  and  _568
REMARK  244  A    between atoms: _568  and  _569
REMARK  245  A    between atoms: _569  and  _570
REMARK  246  A    between atoms: _570  and  _571
REMARK  247  A    between atoms: _580  and  _582
REMARK  248  A    between atoms: _582  and  _583
REMARK  249  A    between atoms: _582  and  _585
REMARK  250  A    between atoms: _585  and  _586
REMARK  251  A    between atoms: _589  and  _591
REMARK  252  A    between atoms: _591  and  _592
REMARK  253  A    between atoms: _595  and  _597
REMARK  254  A    between atoms: _597  and  _598
REMARK  255  A    between atoms: _597  and  _600
REMARK  256  A    between atoms: _600  and  _601
REMARK  257  A    between atoms: _601  and  _602
REMARK                            x       y       z     vdW  Elec       q    Type
REMARK                         _______ _______ _______ _____ _____    ______ ____
ROOT
ATOM      1  C   MET A   1       5.697   3.086  46.517  0.00  0.00    +0.238 C 
ATOM      2  N   ASN A   2       5.431   3.867  47.563  0.00  0.00    -0.298 N 
ATOM      3  H   ASN A   2       4.891   4.743  47.414  0.00  0.00    +0.150 HD
ATOM      4  O   MET A   1       6.387   2.074  46.600  0.00  0.00    -0.274 OA
ENDROOT
BRANCH   1   5
ATOM      5  CA  MET A   1       5.113   3.496  45.161  0.00  0.00    +0.146 C 
BRANCH   5   6
ATOM      6  N   MET A   1       3.696   3.889  45.190  0.00  0.00    -0.238 NA
ATOM      7  H   MET A   1       3.418   4.835  44.858  0.00  0.00    +0.142 HD
ENDBRANCH   5   6
BRANCH   5   8
ATOM      8  CB  MET A   1       5.984   4.587  44.524  0.00  0.00    +0.038 C 
BRANCH   8   9
ATOM      9  CG  MET A   1       6.035   4.507  43.015  0.00  0.00    +0.060 C 
BRANCH   9  10
ATOM     10  SD  MET A   1       6.948   3.072  42.472  0.00  0.00    -0.139 S 
ATOM     11  CE  MET A   1       8.644   3.692  42.604  0.00  0.00    +0.069 C 
ENDBRANCH   9  10
ENDBRANCH   8   9
ENDBRANCH   5   8
ENDBRANCH   1   5
BRANCH   2  12
ATOM     12  CA  ASN A   2       5.878   3.528  48.921  0.00  0.00    +0.146 C 
BRANCH  12  13
ATOM     13  C   ASN A   2       5.240   2.233  49.410  0.00  0.00    +0.227 C 
ATOM     14  O   ASN A   2       5.914   1.393  49.999  0.00  0.00    -0.286 OA
ENDBRANCH  12  13
BRANCH  12  15
ATOM     15  CB  ASN A   2       5.545   4.636  49.934  0.00  0.00    +0.112 C 
BRANCH  15  16
ATOM     16  CG  ASN A   2       6.139   5.990  49.564  0.00  0.00    +0.222 C 
ATOM     17  ND2 ASN A   2       5.760   7.017  50.324  0.00  0.00    -0.329 N 
ATOM     18 HD21 ASN A   2       5.102   6.864  51.115  0.00  0.00    +0.145 HD
ATOM     19 HD22 ASN A   2       6.122   7.972  50.126  0.00  0.00    +0.145 HD
ATOM     20  OD1 ASN A   2       6.920   6.118  48.611  0.00  0.00    -0.275 OA
ENDBRANCH  15  16
ENDBRANCH  12  15
ENDBRANCH   2  12
TORSDOF 9
REMARK  Name = ../refined-set-2016/3cd5/3cd5_pocket.pdb
REMARK  257 active torsions:
REMARK  status: ('A' for Active; 'I' for Inactive)
REMARK    1  A    between atoms: _1  and  _3
REMARK    2  A    between atoms: _3  and  _4
REMARK    3  A    between atoms: _3  and  _6
REMARK    4  A    between atoms: _6  and  _7
REMARK    5  A    between atoms: _7  and  _8
REMARK    6  A    between atoms: _11  and  _13
REMARK    7  A    between atoms: _13  and  _14
REMARK    8  A    between atoms: _16  and  _18
REMARK    9  A    between atoms: _18  and  _19
REMARK   10  A    between atoms: _18  and  _21
REMARK   11  A    between atoms: _23  and  _25
REMARK   12  A    between atoms: _25  and  _26
REMARK   13  A    between atoms: _25  and  _28
REMARK   14  A    between atoms: _28  and  _29
REMARK   15  A    between atoms: _32  and  _34
REMARK   16  A    between atoms: _34  and  _35
REMARK   17  A    between atoms: _34  and  _37
REMARK   18  A    between atoms: _40  and  _42
REMARK   19  A    between atoms: _42  and  _43
REMARK   20  A    between atoms: _46  and  _48
REMARK   21  A    between atoms: _48  and  _49
REMARK   22  A    between atoms: _48  and  _51
REMARK   23  A    between atoms: _51  and  _52
REMARK   24  A    between atoms: _54  and  _56
REMARK   25  A    between atoms: _56  and  _57
REMARK   26  A    between atoms: _56  and  _59
REMARK   27  A    between atoms: _59  and  _60
REMARK   28  A    between atoms: _63  and  _65
REMARK   29  A    between atoms: _65  and  _66
REMARK   30  A    between atoms: _65  and  _68
REMARK   31  A    between atoms: _68  and  _69
REMARK   32  A    between atoms: _74  and  _76
REMARK   33  A    between atoms: _76  and  _77
REMARK   34  A    between atoms: _76  and  _79
REMARK   35  A    between atoms: _79  and  _80
REMARK   36  A    between atoms: _80  and  _81
REMARK   37  A    between atoms: _81  and  _82
REMARK   38  A    between atoms: _91  and  _93
REMARK   39  A    between atoms: _93  and  _94
REMARK   40  A    between atoms: _96  and  _98
REMARK   41  A    between atoms: _98  and  _99
REMARK   42  A    between atoms: _98  and  _101
REMARK   43  A    between atoms: _101  and  _102
REMARK   44  A    between atoms: _102  and  _103
REMARK   45  A    between atoms: _106  and  _108
REMARK   46  A    between atoms: _108  and  _109
REMARK   47  A    between atoms: _108  and  _111
REMARK   48  A    between atoms: _114  and  _116
REMARK   49  A    between atoms: _116  and  _117
REMARK   50  A    between atoms: _116  and  _119
REMARK   51  A    between atoms: _119  and  _120
REMARK   52  A    between atoms: _123  and  _125
REMARK   53  A    between atoms: _125  and  _126
REMARK   54  A    between atoms: _125  and  _128
REMARK   55  A    between atoms: _128  and  _129
REMARK   56  A    between atoms: _129  and  _130
REMARK   57  A    between atoms: _130  and  _131
REMARK   58  A    between atoms: _131  and  _132
REMARK   59  A    between atoms: _136  and  _138
REMARK   60  A    between atoms: _138  and  _139
REMARK   61  A    between atoms: _138  and  _141
REMARK   62  A    between atoms: _141  and  _142
REMARK   63  A    between atoms: _142  and  _143
REMARK   64  A    between atoms: _143  and  _144
REMARK   65  A    between atoms: _144  and  _145
REMARK   66  A    between atoms: _149  and  _151
REMARK   67  A    between atoms: _151  and  _152
REMARK   68  A    between atoms: _151  and  _154
REMARK   69  A    between atoms: _154  and  _155
REMARK   70  A    between atoms: _160  and  _162
REMARK   71  A    between atoms: _162  and  _163
REMARK   72  A    between atoms: _162  and  _165
REMARK   73  A    between atoms: _165  and  _166
REMARK   74  A    between atoms: _171  and  _173
REMARK   75  A    between atoms: _173  and  _174
REMARK   76  A    between atoms: _177  and  _179
REMARK   77  A    between atoms: _179  and  _180
REMARK   78  A    between atoms: _179  and  _182
REMARK   79  A    between atoms: _182  and  _183
REMARK   80  A    between atoms: _188  and  _190
REMARK   81  A    between atoms: _190  and  _191
REMARK   82  A    between atoms: _194  and  _196
REMARK   83  A    between atoms: _196  and  _197
REMARK   84  A    between atoms: _200  and  _202
REMARK   85  A    between atoms: _202  and  _203
REMARK   86  A    between atoms: _202  and  _205
REMARK   87  A    between atoms: _205  and  _206
REMARK   88  A    between atoms: _211  and  _213
REMARK   89  A    between atoms: _213  and  _214
REMARK   90  A    between atoms: _213  and  _216
REMARK   91  A    between atoms: _216  and  _217
REMARK   92  A    between atoms: _220  and  _222
REMARK   93  A    between atoms: _222  and  _223
REMARK   94  A    between atoms: _225  and  _227
REMARK   95  A    between atoms: _227  and  _228
REMARK   96  A    between atoms: _227  and  _230
REMARK   97  A    between atoms: _230  and  _231
REMARK   98  A    between atoms: _231  and  _232
REMARK   99  A    between atoms: _235  and  _237
REMARK  100  A    between atoms: _237  and  _238
REMARK  101  A    between atoms: _237  and  _240
REMARK  102  A    between atoms: _240  and  _241
REMARK  103  A    between atoms: _244  and  _246
REMARK  104  A    between atoms: _246  and  _247
REMARK  105  A    between atoms: _246  and  _249
REMARK  106  A    between atoms: _249  and  _250
REMARK  107  A    between atoms: _252  and  _254
REMARK  108  A    between atoms: _254  and  _255
REMARK  109  A    between atoms: _254  and  _257
REMARK  110  A    between atoms: _257  and  _258
REMARK  111  A    between atoms: _261  and  _263
REMARK  112  A    between atoms: _263  and  _264
REMARK  113  A    between atoms: _263  and  _266
REMARK  114  A    between atoms: _266  and  _267
REMARK  115  A    between atoms: _267  and  _268
REMARK  116  A    between atoms: _270  and  _272
REMARK  117  A    between atoms: _272  and  _273
REMARK  118  A    between atoms: _276  and  _278
REMARK  119  A    between atoms: _278  and  _279
REMARK  120  A    between atoms: _282  and  _284
REMARK  121  A    between atoms: _284  and  _285
REMARK  122  A    between atoms: _284  and  _287
REMARK  123  A    between atoms: _287  and  _288
REMARK  124  A    between atoms: _291  and  _293
REMARK  125  A    between atoms: _293  and  _294
REMARK  126  A    between atoms: _297  and  _299
REMARK  127  A    between atoms: _299  and  _300
REMARK  128  A    between atoms: _303  and  _305
REMARK  129  A    between atoms: _305  and  _306
REMARK  130  A    between atoms: _308  and  _310
REMARK  131  A    between atoms: _310  and  _311
REMARK  132  A    between atoms: _310  and  _313
REMARK  133  A    between atoms: _313  and  _314
REMARK  134  A    between atoms: _319  and  _321
REMARK  135  A    between atoms: _321  and  _322
REMARK  136  A    between atoms: _321  and  _324
REMARK  137  A    between atoms: _324  and  _325
REMARK  138  A    between atoms: _328  and  _330
REMARK  139  A    between atoms: _330  and  _331
REMARK  140  A    between atoms: _330  and  _333
REMARK  141  A    between atoms: _336  and  _338
REMARK  142  A    between atoms: _338  and  _339
REMARK  143  A    between atoms: _338  and  _341
REMARK  144  A    between atoms: _341  and  _342
REMARK  145  A    between atoms: _342  and  _343
REMARK  146  A    between atoms: _343  and  _344
REMARK  147  A    between atoms: _344  and  _345
REMARK  148  A    between atoms: _349  and  _351
REMARK  149  A    between atoms: _351  and  _352
REMARK  150  A    between atoms: _351  and  _354
REMARK  151  A    between atoms: _354  and  _355
REMARK  152  A    between atoms: _357  and  _359
REMARK  153  A    between atoms: _359  and  _360
REMARK  154  A    between atoms: _359  and  _362
REMARK  155  A    between atoms: _362  and  _363
REMARK  156  A    between atoms: _368  and  _369
REMARK  157  A    between atoms: _371  and  _373
REMARK  158  A    between atoms: _373  and  _374
REMARK  159  A    between atoms: _373  and  _376
REMARK  160  A    between atoms: _376  and  _377
REMARK  161  A    between atoms: _377  and  _378
REMARK  162  A    between atoms: _381  and  _383
REMARK  163  A    between atoms: _383  and  _384
REMARK  164  A    between atoms: _383  and  _386
REMARK  165  A    between atoms: _386  and  _387
REMARK  166  A    between atoms: _392  and  _394
REMARK  167  A    between atoms: _394  and  _395
REMARK  168  A    between atoms: _394  and  _397
REMARK  169  A    between atoms: _397  and  _398
REMARK  170  A    between atoms: _401  and  _403
REMARK  171  A    between atoms: _403  and  _404
REMARK  172  A    between atoms: _403  and  _406
REMARK  173  A    between atoms: _406  and  _407
REMARK  174  A    between atoms: _407  and  _408
REMARK  175  A    between atoms: _408  and  _409
REMARK  176  A    between atoms: _418  and  _420
REMARK  177  A    between atoms: _420  and  _421
REMARK  178  A    between atoms: _423  and  _425
REMARK  179  A    between atoms: _425  and  _426
REMARK  180  A    between atoms: _425  and  _428
REMARK  181  A    between atoms: _428  and  _429
REMARK  182  A    between atoms: _429  and  _430
REMARK  183  A    between atoms: _432  and  _434
REMARK  184  A    between atoms: _434  and  _435
REMARK  185  A    between atoms: _434  and  _437
REMARK  186  A    between atoms: _437  and  _438
REMARK  187  A    between atoms: _438  and  _439
REMARK  188  A    between atoms: _441  and  _443
REMARK  189  A    between atoms: _443  and  _444
REMARK  190  A    between atoms: _443  and  _446
REMARK  191  A    between atoms: _446  and  _447
REMARK  192  A    between atoms: _452  and  _454
REMARK  193  A    between atoms: _454  and  _455
REMARK  194  A    between atoms: _454  and  _457
REMARK  195  A    between atoms: _457  and  _458
REMARK  196  A    between atoms: _460  and  _462
REMARK  197  A    between atoms: _462  and  _463
REMARK  198  A    between atoms: _466  and  _468
REMARK  199  A    between atoms: _468  and  _469
REMARK  200  A    between atoms: _468  and  _471
REMARK  201  A    between atoms: _474  and  _476
REMARK  202  A    between atoms: _476  and  _477
REMARK  203  A    between atoms: _476  and  _479
REMARK  204  A    between atoms: _479  and  _480
REMARK  205  A    between atoms: _482  and  _484
REMARK  206  A    between atoms: _484  and  _485
REMARK  207  A    between atoms: _487  and  _489
REMARK  208  A    between atoms: _489  and  _490
REMARK  209  A    between atoms: _489  and  _492
REMARK  210  A    between atoms: _492  and  _493
REMARK  211  A    between atoms: _498  and  _500
REMARK  212  A    between atoms: _500  and  _501
REMARK  213  A    between atoms: _500  and  _503
REMARK  214  A    between atoms: _503  and  _504
REMARK  215  A    between atoms: _509  and  _510
REMARK  216  A    between atoms: _512  and  _514
REMARK  217  A    between atoms: _514  and  _515
REMARK  218  A    between atoms: _514  and  _517
REMARK  219  A    between atoms: _519  and  _521
REMARK  220  A    between atoms: _521  and  _522
REMARK  221  A    between atoms: _521  and  _524
REMARK  222  A    between atoms: _524  and  _525
REMARK  223  A    between atoms: _528  and  _530
REMARK  224  A    between atoms: _530  and  _531
REMARK  225  A    between atoms: _530  and  _533
REMARK  226  A    between atoms: _533  and  _534
REMARK  227  A    between atoms: _537  and  _539
REMARK  228  A    between atoms: _539  and  _540
REMARK  229  A    between atoms: _539  and  _542
REMARK  230  A    between atoms: _542  and  _543
REMARK  231  A    between atoms: _543  and  _544
REMARK  232  A    between atoms: _544  and  _545
REMARK  233  A    between atoms: _545  and  _546
REMARK  234  A    between atoms: _550  and  _552
REMARK  235  A    between atoms: _552  and  _553
REMARK  236  A    between atoms: _552  and  _555
REMARK  237  A    between atoms: _555  and  _556
REMARK  238  A    between atoms: _556  and  _557
REMARK  239  A    between atoms: _557  and  _558
REMARK  240  A    between atoms: _558  and  _559
REMARK  241  A    between atoms: _563  and  _565
REMARK  242  A    between atoms: _565  and  _566
REMARK  243  A    between atoms: _565  and  _568
REMARK  244  A    between atoms: _568  and  _569
REMARK  245  A    between atoms: _569  and  _570
REMARK  246  A    between atoms: _570  and  _571
REMARK  247  A    between atoms: _580  and  _582
REMARK  248  A    between atoms: _582  and  _583
REMARK  249  A    between atoms: _582  and  _585
REMARK  250  A    between atoms: _585  and  _586
REMARK  251  A    between atoms: _589  and  _591
REMARK  252  A    between atoms: _591  and  _592
REMARK  253  A    between atoms: _595  and  _597
REMARK  254  A    between atoms: _597  and  _598
REMARK  255  A    between atoms: _597  and  _600
REMARK  256  A    between atoms: _600  and  _601
REMARK  257  A    between atoms: _601  and  _602
REMARK                            x       y       z     vdW  Elec       q    Type
REMARK                         _______ _______ _______ _____ _____    ______ ____
ROOT
ATOM      1  CA  SER A   1       7.848  -1.180  47.749  0.00  0.00    +0.163 C 
ENDROOT
BRANCH   1   2
ATOM      2  N   SER A   1       6.449  -0.922  47.427  0.00  0.00    -0.237 NA
ATOM      3  H   SER A   1       6.121   0.064  47.384  0.00  0.00    +0.142 HD
ENDBRANCH   1   2
BRANCH   1   4
ATOM      4  C   SER A   1       7.974  -1.860  49.105  0.00  0.00    +0.227 C 
ATOM      5  O   SER A   1       8.841  -2.710  49.293  0.00  0.00    -0.287 OA
ENDBRANCH   1   4
BRANCH   1   6
ATOM      6  CB  SER A   1       8.653   0.129  47.753  0.00  0.00    +0.162 C 
BRANCH   6   7
ATOM      7  OG  SER A   1       8.991   0.536  46.433  0.00  0.00    -0.380 OA
ATOM      8  H   SER A   1       8.162   0.678  45.910  0.00  0.00    +0.211 HD
ENDBRANCH   6   7
ENDBRANCH   1   6
TORSDOF 4
REMARK  Name = ../refined-set-2016/3cd5/3cd5_pocket.pdb
REMARK  257 active torsions:
REMARK  status: ('A' for Active; 'I' for Inactive)
REMARK    1  A    between atoms: _1  and  _3
REMARK    2  A    between atoms: _3  and  _4
REMARK    3  A    between atoms: _3  and  _6
REMARK    4  A    between atoms: _6  and  _7
REMARK    5  A    between atoms: _7  and  _8
REMARK    6  A    between atoms: _11  and  _13
REMARK    7  A    between atoms: _13  and  _14
REMARK    8  A    between atoms: _16  and  _18
REMARK    9  A    between atoms: _18  and  _19
REMARK   10  A    between atoms: _18  and  _21
REMARK   11  A    between atoms: _23  and  _25
REMARK   12  A    between atoms: _25  and  _26
REMARK   13  A    between atoms: _25  and  _28
REMARK   14  A    between atoms: _28  and  _29
REMARK   15  A    between atoms: _32  and  _34
REMARK   16  A    between atoms: _34  and  _35
REMARK   17  A    between atoms: _34  and  _37
REMARK   18  A    between atoms: _40  and  _42
REMARK   19  A    between atoms: _42  and  _43
REMARK   20  A    between atoms: _46  and  _48
REMARK   21  A    between atoms: _48  and  _49
REMARK   22  A    between atoms: _48  and  _51
REMARK   23  A    between atoms: _51  and  _52
REMARK   24  A    between atoms: _54  and  _56
REMARK   25  A    between atoms: _56  and  _57
REMARK   26  A    between atoms: _56  and  _59
REMARK   27  A    between atoms: _59  and  _60
REMARK   28  A    between atoms: _63  and  _65
REMARK   29  A    between atoms: _65  and  _66
REMARK   30  A    between atoms: _65  and  _68
REMARK   31  A    between atoms: _68  and  _69
REMARK   32  A    between atoms: _74  and  _76
REMARK   33  A    between atoms: _76  and  _77
REMARK   34  A    between atoms: _76  and  _79
REMARK   35  A    between atoms: _79  and  _80
REMARK   36  A    between atoms: _80  and  _81
REMARK   37  A    between atoms: _81  and  _82
REMARK   38  A    between atoms: _91  and  _93
REMARK   39  A    between atoms: _93  and  _94
REMARK   40  A    between atoms: _96  and  _98
REMARK   41  A    between atoms: _98  and  _99
REMARK   42  A    between atoms: _98  and  _101
REMARK   43  A    between atoms: _101  and  _102
REMARK   44  A    between atoms: _102  and  _103
REMARK   45  A    between atoms: _106  and  _108
REMARK   46  A    between atoms: _108  and  _109
REMARK   47  A    between atoms: _108  and  _111
REMARK   48  A    between atoms: _114  and  _116
REMARK   49  A    between atoms: _116  and  _117
REMARK   50  A    between atoms: _116  and  _119
REMARK   51  A    between atoms: _119  and  _120
REMARK   52  A    between atoms: _123  and  _125
REMARK   53  A    between atoms: _125  and  _126
REMARK   54  A    between atoms: _125  and  _128
REMARK   55  A    between atoms: _128  and  _129
REMARK   56  A    between atoms: _129  and  _130
REMARK   57  A    between atoms: _130  and  _131
REMARK   58  A    between atoms: _131  and  _132
REMARK   59  A    between atoms: _136  and  _138
REMARK   60  A    between atoms: _138  and  _139
REMARK   61  A    between atoms: _138  and  _141
REMARK   62  A    between atoms: _141  and  _142
REMARK   63  A    between atoms: _142  and  _143
REMARK   64  A    between atoms: _143  and  _144
REMARK   65  A    between atoms: _144  and  _145
REMARK   66  A    between atoms: _149  and  _151
REMARK   67  A    between atoms: _151  and  _152
REMARK   68  A    between atoms: _151  and  _154
REMARK   69  A    between atoms: _154  and  _155
REMARK   70  A    between atoms: _160  and  _162
REMARK   71  A    between atoms: _162  and  _163
REMARK   72  A    between atoms: _162  and  _165
REMARK   73  A    between atoms: _165  and  _166
REMARK   74  A    between atoms: _171  and  _173
REMARK   75  A    between atoms: _173  and  _174
REMARK   76  A    between atoms: _177  and  _179
REMARK   77  A    between atoms: _179  and  _180
REMARK   78  A    between atoms: _179  and  _182
REMARK   79  A    between atoms: _182  and  _183
REMARK   80  A    between atoms: _188  and  _190
REMARK   81  A    between atoms: _190  and  _191
REMARK   82  A    between atoms: _194  and  _196
REMARK   83  A    between atoms: _196  and  _197
REMARK   84  A    between atoms: _200  and  _202
REMARK   85  A    between atoms: _202  and  _203
REMARK   86  A    between atoms: _202  and  _205
REMARK   87  A    between atoms: _205  and  _206
REMARK   88  A    between atoms: _211  and  _213
REMARK   89  A    between atoms: _213  and  _214
REMARK   90  A    between atoms: _213  and  _216
REMARK   91  A    between atoms: _216  and  _217
REMARK   92  A    between atoms: _220  and  _222
REMARK   93  A    between atoms: _222  and  _223
REMARK   94  A    between atoms: _225  and  _227
REMARK   95  A    between atoms: _227  and  _228
REMARK   96  A    between atoms: _227  and  _230
REMARK   97  A    between atoms: _230  and  _231
REMARK   98  A    between atoms: _231  and  _232
REMARK   99  A    between atoms: _235  and  _237
REMARK  100  A    between atoms: _237  and  _238
REMARK  101  A    between atoms: _237  and  _240
REMARK  102  A    between atoms: _240  and  _241
REMARK  103  A    between atoms: _244  and  _246
REMARK  104  A    between atoms: _246  and  _247
REMARK  105  A    between atoms: _246  and  _249
REMARK  106  A    between atoms: _249  and  _250
REMARK  107  A    between atoms: _252  and  _254
REMARK  108  A    between atoms: _254  and  _255
REMARK  109  A    between atoms: _254  and  _257
REMARK  110  A    between atoms: _257  and  _258
REMARK  111  A    between atoms: _261  and  _263
REMARK  112  A    between atoms: _263  and  _264
REMARK  113  A    between atoms: _263  and  _266
REMARK  114  A    between atoms: _266  and  _267
REMARK  115  A    between atoms: _267  and  _268
REMARK  116  A    between atoms: _270  and  _272
REMARK  117  A    between atoms: _272  and  _273
REMARK  118  A    between atoms: _276  and  _278
REMARK  119  A    between atoms: _278  and  _279
REMARK  120  A    between atoms: _282  and  _284
REMARK  121  A    between atoms: _284  and  _285
REMARK  122  A    between atoms: _284  and  _287
REMARK  123  A    between atoms: _287  and  _288
REMARK  124  A    between atoms: _291  and  _293
REMARK  125  A    between atoms: _293  and  _294
REMARK  126  A    between atoms: _297  and  _299
REMARK  127  A    between atoms: _299  and  _300
REMARK  128  A    between atoms: _303  and  _305
REMARK  129  A    between atoms: _305  and  _306
REMARK  130  A    between atoms: _308  and  _310
REMARK  131  A    between atoms: _310  and  _311
REMARK  132  A    between atoms: _310  and  _313
REMARK  133  A    between atoms: _313  and  _314
REMARK  134  A    between atoms: _319  and  _321
REMARK  135  A    between atoms: _321  and  _322
REMARK  136  A    between atoms: _321  and  _324
REMARK  137  A    between atoms: _324  and  _325
REMARK  138  A    between atoms: _328  and  _330
REMARK  139  A    between atoms: _330  and  _331
REMARK  140  A    between atoms: _330  and  _333
REMARK  141  A    between atoms: _336  and  _338
REMARK  142  A    between atoms: _338  and  _339
REMARK  143  A    between atoms: _338  and  _341
REMARK  144  A    between atoms: _341  and  _342
REMARK  145  A    between atoms: _342  and  _343
REMARK  146  A    between atoms: _343  and  _344
REMARK  147  A    between atoms: _344  and  _345
REMARK  148  A    between atoms: _349  and  _351
REMARK  149  A    between atoms: _351  and  _352
REMARK  150  A    between atoms: _351  and  _354
REMARK  151  A    between atoms: _354  and  _355
REMARK  152  A    between atoms: _357  and  _359
REMARK  153  A    between atoms: _359  and  _360
REMARK  154  A    between atoms: _359  and  _362
REMARK  155  A    between atoms: _362  and  _363
REMARK  156  A    between atoms: _368  and  _369
REMARK  157  A    between atoms: _371  and  _373
REMARK  158  A    between atoms: _373  and  _374
REMARK  159  A    between atoms: _373  and  _376
REMARK  160  A    between atoms: _376  and  _377
REMARK  161  A    between atoms: _377  and  _378
REMARK  162  A    between atoms: _381  and  _383
REMARK  163  A    between atoms: _383  and  _384
REMARK  164  A    between atoms: _383  and  _386
REMARK  165  A    between atoms: _386  and  _387
REMARK  166  A    between atoms: _392  and  _394
REMARK  167  A    between atoms: _394  and  _395
REMARK  168  A    between atoms: _394  and  _397
REMARK  169  A    between atoms: _397  and  _398
REMARK  170  A    between atoms: _401  and  _403
REMARK  171  A    between atoms: _403  and  _404
REMARK  172  A    between atoms: _403  and  _406
REMARK  173  A    between atoms: _406  and  _407
REMARK  174  A    between atoms: _407  and  _408
REMARK  175  A    between atoms: _408  and  _409
REMARK  176  A    between atoms: _418  and  _420
REMARK  177  A    between atoms: _420  and  _421
REMARK  178  A    between atoms: _423  and  _425
REMARK  179  A    between atoms: _425  and  _426
REMARK  180  A    between atoms: _425  and  _428
REMARK  181  A    between atoms: _428  and  _429
REMARK  182  A    between atoms: _429  and  _430
REMARK  183  A    between atoms: _432  and  _434
REMARK  184  A    between atoms: _434  and  _435
REMARK  185  A    between atoms: _434  and  _437
REMARK  186  A    between atoms: _437  and  _438
REMARK  187  A    between atoms: _438  and  _439
REMARK  188  A    between atoms: _441  and  _443
REMARK  189  A    between atoms: _443  and  _444
REMARK  190  A    between atoms: _443  and  _446
REMARK  191  A    between atoms: _446  and  _447
REMARK  192  A    between atoms: _452  and  _454
REMARK  193  A    between atoms: _454  and  _455
REMARK  194  A    between atoms: _454  and  _457
REMARK  195  A    between atoms: _457  and  _458
REMARK  196  A    between atoms: _460  and  _462
REMARK  197  A    between atoms: _462  and  _463
REMARK  198  A    between atoms: _466  and  _468
REMARK  199  A    between atoms: _468  and  _469
REMARK  200  A    between atoms: _468  and  _471
REMARK  201  A    between atoms: _474  and  _476
REMARK  202  A    between atoms: _476  and  _477
REMARK  203  A    between atoms: _476  and  _479
REMARK  204  A    between atoms: _479  and  _480
REMARK  205  A    between atoms: _482  and  _484
REMARK  206  A    between atoms: _484  and  _485
REMARK  207  A    between atoms: _487  and  _489
REMARK  208  A    between atoms: _489  and  _490
REMARK  209  A    between atoms: _489  and  _492
REMARK  210  A    between atoms: _492  and  _493
REMARK  211  A    between atoms: _498  and  _500
REMARK  212  A    between atoms: _500  and  _501
REMARK  213  A    between atoms: _500  and  _503
REMARK  214  A    between atoms: _503  and  _504
REMARK  215  A    between atoms: _509  and  _510
REMARK  216  A    between atoms: _512  and  _514
REMARK  217  A    between atoms: _514  and  _515
REMARK  218  A    between atoms: _514  and  _517
REMARK  219  A    between atoms: _519  and  _521
REMARK  220  A    between atoms: _521  and  _522
REMARK  221  A    between atoms: _521  and  _524
REMARK  222  A    between atoms: _524  and  _525
REMARK  223  A    between atoms: _528  and  _530
REMARK  224  A    between atoms: _530  and  _531
REMARK  225  A    between atoms: _530  and  _533
REMARK  226  A    between atoms: _533  and  _534
REMARK  227  A    between atoms: _537  and  _539
REMARK  228  A    between atoms: _539  and  _540
REMARK  229  A    between atoms: _539  and  _542
REMARK  230  A    between atoms: _542  and  _543
REMARK  231  A    between atoms: _543  and  _544
REMARK  232  A    between atoms: _544  and  _545
REMARK  233  A    between atoms: _545  and  _546
REMARK  234  A    between atoms: _550  and  _552
REMARK  235  A    between atoms: _552  and  _553
REMARK  236  A    between atoms: _552  and  _555
REMARK  237  A    between atoms: _555  and  _556
REMARK  238  A    between atoms: _556  and  _557
REMARK  239  A    between atoms: _557  and  _558
REMARK  240  A    between atoms: _558  and  _559
REMARK  241  A    between atoms: _563  and  _565
REMARK  242  A    between atoms: _565  and  _566
REMARK  243  A    between atoms: _565  and  _568
REMARK  244  A    between atoms: _568  and  _569
REMARK  245  A    between atoms: _569  and  _570
REMARK  246  A    between atoms: _570  and  _571
REMARK  247  A    between atoms: _580  and  _582
REMARK  248  A    between atoms: _582  and  _583
REMARK  249  A    between atoms: _582  and  _585
REMARK  250  A    between atoms: _585  and  _586
REMARK  251  A    between atoms: _589  and  _591
REMARK  252  A    between atoms: _591  and  _592
REMARK  253  A    between atoms: _595  and  _597
REMARK  254  A    between atoms: _597  and  _598
REMARK  255  A    between atoms: _597  and  _600
REMARK  256  A    between atoms: _600  and  _601
REMARK  257  A    between atoms: _601  and  _602
REMARK                            x       y       z     vdW  Elec       q    Type
REMARK                         _______ _______ _______ _____ _____    ______ ____
ROOT
ATOM      1  C   TYR A   6       9.392  -3.603  35.481  0.00  0.00    +0.241 C 
ATOM      2  N   CYS A   7       9.370  -2.600  36.356  0.00  0.00    -0.296 N 
ATOM      3  H   CYS A   7      10.270  -2.173  36.656  0.00  0.00    +0.150 HD
ATOM      4  O   TYR A   6       8.375  -4.058  34.958  0.00  0.00    -0.273 OA
ENDROOT
BRANCH   2   5
ATOM      5  CA  CYS A   7       8.119  -2.080  36.909  0.00  0.00    +0.160 C 
BRANCH   5   6
ATOM      6  C   CYS A   7       7.097  -1.673  35.833  0.00  0.00    +0.242 C 
ATOM      7  O   CYS A   7       5.992  -2.197  35.857  0.00  0.00    -0.273 OA
ATOM      8  N   THR A   8       7.414  -0.767  34.898  0.00  0.00    -0.295 N 
ATOM      9  H   THR A   8       6.716  -0.608  34.144  0.00  0.00    +0.150 HD
BRANCH   8  10
ATOM     10  CA  THR A   8       8.649   0.024  34.832  0.00  0.00    +0.176 C 
BRANCH  10  11
ATOM     11  C   THR A   8       8.311   1.449  35.226  0.00  0.00    +0.243 C 
ATOM     12  N   ASP A   9       9.201   2.091  35.979  0.00  0.00    -0.296 N 
ATOM     13  H   ASP A   9      10.112   1.632  36.183  0.00  0.00    +0.150 HD
ATOM     14  O   THR A   8       7.274   1.967  34.826  0.00  0.00    -0.273 OA
BRANCH  12  15
ATOM     15  CA  ASP A   9       8.941   3.417  36.527  0.00  0.00    +0.160 C 
BRANCH  15  16
ATOM     16  C   ASP A   9       9.813   4.515  35.901  0.00  0.00    +0.241 C 
ATOM     17  O   ASP A   9      11.043   4.469  35.979  0.00  0.00    -0.273 OA
ATOM     18  N   LYS A  10       9.148   5.499  35.294  0.00  0.00    -0.297 N 
ATOM     19  H   LYS A  10       8.113   5.417  35.228  0.00  0.00    +0.150 HD
BRANCH  18  20
ATOM     20  CA  LYS A  10       9.780   6.693  34.712  0.00  0.00    +0.149 C 
BRANCH  20  21
ATOM     21  C   LYS A  10      10.786   6.445  33.568  0.00  0.00    +0.241 C 
ATOM     22  O   LYS A  10      11.720   7.235  33.365  0.00  0.00    -0.273 OA
ATOM     23  N   LYS A  11      10.589   5.353  32.832  0.00  0.00    -0.298 N 
ATOM     24  H   LYS A  11       9.919   4.636  33.176  0.00  0.00    +0.150 HD
BRANCH  23  25
ATOM     25  CA  LYS A  11      11.276   5.116  31.557  0.00  0.00    +0.137 C 
BRANCH  25  26
ATOM     26  C   LYS A  11      10.263   4.554  30.546  0.00  0.00    +0.227 C 
ATOM     27  O   LYS A  11       9.303   3.887  30.936  0.00  0.00    -0.286 OA
ENDBRANCH  25  26
BRANCH  25  28
ATOM     28  CB  LYS A  11      12.414   4.100  31.711  0.00  0.00    +0.028 C 
BRANCH  28  29
ATOM     29  CG  LYS A  11      13.678   4.615  32.379  0.00  0.00    -0.000 C 
BRANCH  29  30
ATOM     30  CD  LYS A  11      13.665   4.490  33.913  0.00  0.00    -0.024 C 
BRANCH  30  31
ATOM     31  CE  LYS A  11      13.560   3.040  34.408  0.00  0.00    -0.086 C 
BRANCH  31  32
ATOM     32  NZ  LYS A  11      13.709   2.941  35.891  0.00  0.00    +0.380 N 
ATOM     33  HZ1 LYS A  11      12.960   3.496  36.351  0.00  0.00    -0.089 HD
ATOM     34  HZ2 LYS A  11      13.631   1.945  36.180  0.00  0.00    -0.089 HD
ATOM     35  HZ3 LYS A  11      14.639   3.313  36.170  0.00  0.00    -0.089 HD
ENDBRANCH  31  32
ENDBRANCH  30  31
ENDBRANCH  29  30
ENDBRANCH  28  29
ENDBRANCH  25  28
ENDBRANCH  23  25
ENDBRANCH  20  21
BRANCH  20  36
ATOM     36  CB  LYS A  10      10.399   7.549  35.821  0.00  0.00    +0.029 C 
BRANCH  36  37
ATOM     37  CG  LYS A  10       9.392   7.955  36.881  0.00  0.00    +0.000 C 
BRANCH  37  38
ATOM     38  CD  LYS A  10      10.052   8.682  38.035  0.00  0.00    -0.024 C 
BRANCH  38  39
ATOM     39  CE  LYS A  10       9.030   9.132  39.060  0.00  0.00    -0.086 C 
BRANCH  39  40
ATOM     40  NZ  LYS A  10       9.659   9.448  40.374  0.00  0.00    +0.380 N 
ATOM     41  HZ1 LYS A  10       8.924   9.751  41.045  0.00  0.00    -0.089 HD
ATOM     42  HZ2 LYS A  10      10.137   8.600  40.741  0.00  0.00    -0.089 HD
ATOM     43  HZ3 LYS A  10      10.353  10.212  40.250  0.00  0.00    -0.089 HD
ENDBRANCH  39  40
ENDBRANCH  38  39
ENDBRANCH  37  38
ENDBRANCH  36  37
ENDBRANCH  20  36
ENDBRANCH  18  20
ENDBRANCH  15  16
BRANCH  15  44
ATOM     44  CB  ASP A   9       9.135   3.402  38.051  0.00  0.00    +0.143 C 
BRANCH  44  45
ATOM     45  CG  ASP A   9       8.465   4.581  38.739  0.00  0.00    +0.367 C 
ATOM     46  OD2 ASP A   9       8.924   5.104  39.772  0.00  0.00    -0.246 OA
ATOM     47  OD1 ASP A   9       7.406   5.043  38.257  0.00  0.00    -0.246 OA
ENDBRANCH  44  45
ENDBRANCH  15  44
ENDBRANCH  12  15
ENDBRANCH  10  11
BRANCH  10  48
ATOM     48  CB  THR A   8       9.210   0.023  33.395  0.00  0.00    +0.137 C 
ATOM     49  CG2 THR A   8      10.546   0.760  33.316  0.00  0.00    +0.034 C 
BRANCH  48  50
ATOM     50  OG1 THR A   8       9.538  -1.312  32.991  0.00  0.00    -0.382 OA
ATOM     51  HG1 THR A   8      10.220  -1.683  33.605  0.00  0.00    +0.210 HD
ENDBRANCH  48  50
ENDBRANCH  10  48
ENDBRANCH   8  10
ENDBRANCH   5   6
BRANCH   5  52
ATOM     52  CB  CYS A   7       8.358  -0.934  37.915  0.00  0.00    +0.098 C 
ATOM     53  SG  CYS A   7       9.927  -0.995  38.825  0.00  0.00    -0.080 S 
ENDBRANCH   5  52
ENDBRANCH   2   5
BRANCH   1  54
ATOM     54  CA  TYR A   6      10.770  -4.159  35.111  0.00  0.00    +0.153 C 
BRANCH  54  56
ATOM     55  C   ASN A   5      12.453  -2.407  34.891  0.00  0.00    +0.241 C 
ATOM     56  N   TYR A   6      11.847  -3.327  35.639  0.00  0.00    -0.297 N 
ATOM     57  H   TYR A   6      12.149  -3.456  36.626  0.00  0.00    +0.150 HD
ATOM     58  O   ASN A   5      12.126  -2.170  33.724  0.00  0.00    -0.273 OA
BRANCH  55  59
ATOM     59  CA  ASN A   5      13.581  -1.610  35.562  0.00  0.00    +0.158 C 
BRANCH  59  61
ATOM     60  C   GLY A   4      14.758  -3.475  36.674  0.00  0.00    +0.243 C 
ATOM     61  N   ASN A   5      14.198  -2.266  36.721  0.00  0.00    -0.297 N 
ATOM     62  H   ASN A   5      14.198  -1.760  37.629  0.00  0.00    +0.150 HD
ATOM     63  O   GLY A   4      14.784  -4.161  35.657  0.00  0.00    -0.273 OA
BRANCH  60  64
ATOM     64  CA  GLY A   4      15.366  -3.996  37.969  0.00  0.00    +0.176 C 
BRANCH  64  67
ATOM     65  C   SER A   3      14.896  -2.544  39.881  0.00  0.00    +0.243 C 
ATOM     66  O   SER A   3      15.983  -1.963  39.820  0.00  0.00    -0.273 OA
ATOM     67  N   GLY A   4      14.586  -3.597  39.129  0.00  0.00    -0.295 N 
ATOM     68  H   GLY A   4      13.749  -4.159  39.382  0.00  0.00    +0.150 HD
BRANCH  65  69
ATOM     69  CA  SER A   3      13.820  -2.088  40.866  0.00  0.00    +0.178 C 
BRANCH  69  72
ATOM     70  C   VAL A   2      13.554  -3.023  43.111  0.00  0.00    +0.241 C 
ATOM     71  O   VAL A   2      12.404  -3.397  42.908  0.00  0.00    -0.273 OA
ATOM     72  N   SER A   3      14.254  -2.289  42.244  0.00  0.00    -0.295 N 
ATOM     73  H   SER A   3      15.139  -1.845  42.562  0.00  0.00    +0.150 HD
BRANCH  70  74
ATOM     74  CA  VAL A   2      14.254  -3.388  44.405  0.00  0.00    +0.148 C 
BRANCH  74  76
ATOM     75  C   ALA A   1      16.254  -4.376  43.439  0.00  0.00    +0.238 C 
ATOM     76  N   VAL A   2      15.700  -3.426  44.193  0.00  0.00    -0.297 N 
ATOM     77  H   VAL A   2      16.304  -2.704  44.635  0.00  0.00    +0.150 HD
ATOM     78  O   ALA A   1      15.590  -5.237  42.859  0.00  0.00    -0.274 OA
BRANCH  75  79
ATOM     79  CA  ALA A   1      17.772  -4.348  43.295  0.00  0.00    +0.145 C 
ATOM     80  CB  ALA A   1      18.156  -3.627  42.013  0.00  0.00    +0.028 C 
BRANCH  79  81
ATOM     81  N   ALA A   1      18.332  -5.704  43.301  0.00  0.00    -0.238 NA
ATOM     82  H   ALA A   1      17.717  -6.505  43.053  0.00  0.00    +0.142 HD
ENDBRANCH  79  81
ENDBRANCH  75  79
ENDBRANCH  74  76
BRANCH  74  83
ATOM     83  CB  VAL A   2      13.827  -2.428  45.552  0.00  0.00    +0.027 C 
ATOM     84  CG2 VAL A   2      12.464  -2.836  46.089  0.00  0.00    +0.002 C 
ATOM     85  CG1 VAL A   2      13.810  -0.958  45.113  0.00  0.00    +0.002 C 
ENDBRANCH  74  83
ENDBRANCH  70  74
ENDBRANCH  69  72
BRANCH  69  86
ATOM     86  CB  SER A   3      13.486  -0.621  40.619  0.00  0.00    +0.166 C 
BRANCH  86  87
ATOM     87  OG  SER A   3      12.868  -0.446  39.356  0.00  0.00    -0.380 OA
ATOM     88  H   SER A   3      12.662   0.513  39.221  0.00  0.00    +0.211 HD
ENDBRANCH  86  87
ENDBRANCH  69  86
ENDBRANCH  65  69
ENDBRANCH  64  67
ENDBRANCH  60  64
ENDBRANCH  59  61
BRANCH  59  89
ATOM     89  CB  ASN A   5      14.657  -1.196  34.539  0.00  0.00    +0.114 C 
BRANCH  89  90
ATOM     90  CG  ASN A   5      15.402   0.064  34.952  0.00  0.00    +0.222 C 
ATOM     91  OD1 ASN A   5      15.164   0.622  36.036  0.00  0.00    -0.275 OA
ATOM     92  ND2 ASN A   5      16.303   0.531  34.083  0.00  0.00    -0.329 N 
ATOM     93 HD21 ASN A   5      16.838   1.395  34.303  0.00  0.00    +0.145 HD
ATOM     94 HD22 ASN A   5      16.469   0.030  33.187  0.00  0.00    +0.145 HD
ENDBRANCH  89  90
ENDBRANCH  59  89
ENDBRANCH  55  59
ENDBRANCH  54  56
BRANCH  54  95
ATOM     95  CB  TYR A   6      10.921  -5.600  35.615  0.00  0.00    +0.055 C 
BRANCH  95  96
ATOM     96  CG  TYR A   6      10.153  -6.635  34.814  0.00  0.00    -0.020 A 
ATOM     97  CD2 TYR A   6       9.264  -7.506  35.436  0.00  0.00    -0.001 A 
ATOM     98  CE2 TYR A   6       8.563  -8.467  34.704  0.00  0.00    +0.036 A 
ATOM     99  CZ  TYR A   6       8.746  -8.550  33.336  0.00  0.00    +0.134 A 
ATOM    100  CE1 TYR A   6       9.622  -7.702  32.697  0.00  0.00    +0.036 A 
ATOM    101  CD1 TYR A   6      10.325  -6.752  33.436  0.00  0.00    -0.001 A 
BRANCH  99 102
ATOM    102  OH  TYR A   6       8.053  -9.491  32.610  0.00  0.00    -0.506 OA
ATOM    103  HH  TYR A   6       7.081  -9.337  32.715  0.00  0.00    +0.292 HD
ENDBRANCH  99 102
ENDBRANCH  95  96
ENDBRANCH  54  95
ENDBRANCH   1  54
TORSDOF 45
REMARK  Name = ../refined-set-2016/3cd5/3cd5_pocket.pdb
REMARK  257 active torsions:
REMARK  status: ('A' for Active; 'I' for Inactive)
REMARK    1  A    between atoms: _1  and  _3
REMARK    2  A    between atoms: _3  and  _4
REMARK    3  A    between atoms: _3  and  _6
REMARK    4  A    between atoms: _6  and  _7
REMARK    5  A    between atoms: _7  and  _8
REMARK    6  A    between atoms: _11  and  _13
REMARK    7  A    between atoms: _13  and  _14
REMARK    8  A    between atoms: _16  and  _18
REMARK    9  A    between atoms: _18  and  _19
REMARK   10  A    between atoms: _18  and  _21
REMARK   11  A    between atoms: _23  and  _25
REMARK   12  A    between atoms: _25  and  _26
REMARK   13  A    between atoms: _25  and  _28
REMARK   14  A    between atoms: _28  and  _29
REMARK   15  A    between atoms: _32  and  _34
REMARK   16  A    between atoms: _34  and  _35
REMARK   17  A    between atoms: _34  and  _37
REMARK   18  A    between atoms: _40  and  _42
REMARK   19  A    between atoms: _42  and  _43
REMARK   20  A    between atoms: _46  and  _48
REMARK   21  A    between atoms: _48  and  _49
REMARK   22  A    between atoms: _48  and  _51
REMARK   23  A    between atoms: _51  and  _52
REMARK   24  A    between atoms: _54  and  _56
REMARK   25  A    between atoms: _56  and  _57
REMARK   26  A    between atoms: _56  and  _59
REMARK   27  A    between atoms: _59  and  _60
REMARK   28  A    between atoms: _63  and  _65
REMARK   29  A    between atoms: _65  and  _66
REMARK   30  A    between atoms: _65  and  _68
REMARK   31  A    between atoms: _68  and  _69
REMARK   32  A    between atoms: _74  and  _76
REMARK   33  A    between atoms: _76  and  _77
REMARK   34  A    between atoms: _76  and  _79
REMARK   35  A    between atoms: _79  and  _80
REMARK   36  A    between atoms: _80  and  _81
REMARK   37  A    between atoms: _81  and  _82
REMARK   38  A    between atoms: _91  and  _93
REMARK   39  A    between atoms: _93  and  _94
REMARK   40  A    between atoms: _96  and  _98
REMARK   41  A    between atoms: _98  and  _99
REMARK   42  A    between atoms: _98  and  _101
REMARK   43  A    between atoms: _101  and  _102
REMARK   44  A    between atoms: _102  and  _103
REMARK   45  A    between atoms: _106  and  _108
REMARK   46  A    between atoms: _108  and  _109
REMARK   47  A    between atoms: _108  and  _111
REMARK   48  A    between atoms: _114  and  _116
REMARK   49  A    between atoms: _116  and  _117
REMARK   50  A    between atoms: _116  and  _119
REMARK   51  A    between atoms: _119  and  _120
REMARK   52  A    between atoms: _123  and  _125
REMARK   53  A    between atoms: _125  and  _126
REMARK   54  A    between atoms: _125  and  _128
REMARK   55  A    between atoms: _128  and  _129
REMARK   56  A    between atoms: _129  and  _130
REMARK   57  A    between atoms: _130  and  _131
REMARK   58  A    between atoms: _131  and  _132
REMARK   59  A    between atoms: _136  and  _138
REMARK   60  A    between atoms: _138  and  _139
REMARK   61  A    between atoms: _138  and  _141
REMARK   62  A    between atoms: _141  and  _142
REMARK   63  A    between atoms: _142  and  _143
REMARK   64  A    between atoms: _143  and  _144
REMARK   65  A    between atoms: _144  and  _145
REMARK   66  A    between atoms: _149  and  _151
REMARK   67  A    between atoms: _151  and  _152
REMARK   68  A    between atoms: _151  and  _154
REMARK   69  A    between atoms: _154  and  _155
REMARK   70  A    between atoms: _160  and  _162
REMARK   71  A    between atoms: _162  and  _163
REMARK   72  A    between atoms: _162  and  _165
REMARK   73  A    between atoms: _165  and  _166
REMARK   74  A    between atoms: _171  and  _173
REMARK   75  A    between atoms: _173  and  _174
REMARK   76  A    between atoms: _177  and  _179
REMARK   77  A    between atoms: _179  and  _180
REMARK   78  A    between atoms: _179  and  _182
REMARK   79  A    between atoms: _182  and  _183
REMARK   80  A    between atoms: _188  and  _190
REMARK   81  A    between atoms: _190  and  _191
REMARK   82  A    between atoms: _194  and  _196
REMARK   83  A    between atoms: _196  and  _197
REMARK   84  A    between atoms: _200  and  _202
REMARK   85  A    between atoms: _202  and  _203
REMARK   86  A    between atoms: _202  and  _205
REMARK   87  A    between atoms: _205  and  _206
REMARK   88  A    between atoms: _211  and  _213
REMARK   89  A    between atoms: _213  and  _214
REMARK   90  A    between atoms: _213  and  _216
REMARK   91  A    between atoms: _216  and  _217
REMARK   92  A    between atoms: _220  and  _222
REMARK   93  A    between atoms: _222  and  _223
REMARK   94  A    between atoms: _225  and  _227
REMARK   95  A    between atoms: _227  and  _228
REMARK   96  A    between atoms: _227  and  _230
REMARK   97  A    between atoms: _230  and  _231
REMARK   98  A    between atoms: _231  and  _232
REMARK   99  A    between atoms: _235  and  _237
REMARK  100  A    between atoms: _237  and  _238
REMARK  101  A    between atoms: _237  and  _240
REMARK  102  A    between atoms: _240  and  _241
REMARK  103  A    between atoms: _244  and  _246
REMARK  104  A    between atoms: _246  and  _247
REMARK  105  A    between atoms: _246  and  _249
REMARK  106  A    between atoms: _249  and  _250
REMARK  107  A    between atoms: _252  and  _254
REMARK  108  A    between atoms: _254  and  _255
REMARK  109  A    between atoms: _254  and  _257
REMARK  110  A    between atoms: _257  and  _258
REMARK  111  A    between atoms: _261  and  _263
REMARK  112  A    between atoms: _263  and  _264
REMARK  113  A    between atoms: _263  and  _266
REMARK  114  A    between atoms: _266  and  _267
REMARK  115  A    between atoms: _267  and  _268
REMARK  116  A    between atoms: _270  and  _272
REMARK  117  A    between atoms: _272  and  _273
REMARK  118  A    between atoms: _276  and  _278
REMARK  119  A    between atoms: _278  and  _279
REMARK  120  A    between atoms: _282  and  _284
REMARK  121  A    between atoms: _284  and  _285
REMARK  122  A    between atoms: _284  and  _287
REMARK  123  A    between atoms: _287  and  _288
REMARK  124  A    between atoms: _291  and  _293
REMARK  125  A    between atoms: _293  and  _294
REMARK  126  A    between atoms: _297  and  _299
REMARK  127  A    between atoms: _299  and  _300
REMARK  128  A    between atoms: _303  and  _305
REMARK  129  A    between atoms: _305  and  _306
REMARK  130  A    between atoms: _308  and  _310
REMARK  131  A    between atoms: _310  and  _311
REMARK  132  A    between atoms: _310  and  _313
REMARK  133  A    between atoms: _313  and  _314
REMARK  134  A    between atoms: _319  and  _321
REMARK  135  A    between atoms: _321  and  _322
REMARK  136  A    between atoms: _321  and  _324
REMARK  137  A    between atoms: _324  and  _325
REMARK  138  A    between atoms: _328  and  _330
REMARK  139  A    between atoms: _330  and  _331
REMARK  140  A    between atoms: _330  and  _333
REMARK  141  A    between atoms: _336  and  _338
REMARK  142  A    between atoms: _338  and  _339
REMARK  143  A    between atoms: _338  and  _341
REMARK  144  A    between atoms: _341  and  _342
REMARK  145  A    between atoms: _342  and  _343
REMARK  146  A    between atoms: _343  and  _344
REMARK  147  A    between atoms: _344  and  _345
REMARK  148  A    between atoms: _349  and  _351
REMARK  149  A    between atoms: _351  and  _352
REMARK  150  A    between atoms: _351  and  _354
REMARK  151  A    between atoms: _354  and  _355
REMARK  152  A    between atoms: _357  and  _359
REMARK  153  A    between atoms: _359  and  _360
REMARK  154  A    between atoms: _359  and  _362
REMARK  155  A    between atoms: _362  and  _363
REMARK  156  A    between atoms: _368  and  _369
REMARK  157  A    between atoms: _371  and  _373
REMARK  158  A    between atoms: _373  and  _374
REMARK  159  A    between atoms: _373  and  _376
REMARK  160  A    between atoms: _376  and  _377
REMARK  161  A    between atoms: _377  and  _378
REMARK  162  A    between atoms: _381  and  _383
REMARK  163  A    between atoms: _383  and  _384
REMARK  164  A    between atoms: _383  and  _386
REMARK  165  A    between atoms: _386  and  _387
REMARK  166  A    between atoms: _392  and  _394
REMARK  167  A    between atoms: _394  and  _395
REMARK  168  A    between atoms: _394  and  _397
REMARK  169  A    between atoms: _397  and  _398
REMARK  170  A    between atoms: _401  and  _403
REMARK  171  A    between atoms: _403  and  _404
REMARK  172  A    between atoms: _403  and  _406
REMARK  173  A    between atoms: _406  and  _407
REMARK  174  A    between atoms: _407  and  _408
REMARK  175  A    between atoms: _408  and  _409
REMARK  176  A    between atoms: _418  and  _420
REMARK  177  A    between atoms: _420  and  _421
REMARK  178  A    between atoms: _423  and  _425
REMARK  179  A    between atoms: _425  and  _426
REMARK  180  A    between atoms: _425  and  _428
REMARK  181  A    between atoms: _428  and  _429
REMARK  182  A    between atoms: _429  and  _430
REMARK  183  A    between atoms: _432  and  _434
REMARK  184  A    between atoms: _434  and  _435
REMARK  185  A    between atoms: _434  and  _437
REMARK  186  A    between atoms: _437  and  _438
REMARK  187  A    between atoms: _438  and  _439
REMARK  188  A    between atoms: _441  and  _443
REMARK  189  A    between atoms: _443  and  _444
REMARK  190  A    between atoms: _443  and  _446
REMARK  191  A    between atoms: _446  and  _447
REMARK  192  A    between atoms: _452  and  _454
REMARK  193  A    between atoms: _454  and  _455
REMARK  194  A    between atoms: _454  and  _457
REMARK  195  A    between atoms: _457  and  _458
REMARK  196  A    between atoms: _460  and  _462
REMARK  197  A    between atoms: _462  and  _463
REMARK  198  A    between atoms: _466  and  _468
REMARK  199  A    between atoms: _468  and  _469
REMARK  200  A    between atoms: _468  and  _471
REMARK  201  A    between atoms: _474  and  _476
REMARK  202  A    between atoms: _476  and  _477
REMARK  203  A    between atoms: _476  and  _479
REMARK  204  A    between atoms: _479  and  _480
REMARK  205  A    between atoms: _482  and  _484
REMARK  206  A    between atoms: _484  and  _485
REMARK  207  A    between atoms: _487  and  _489
REMARK  208  A    between atoms: _489  and  _490
REMARK  209  A    between atoms: _489  and  _492
REMARK  210  A    between atoms: _492  and  _493
REMARK  211  A    between atoms: _498  and  _500
REMARK  212  A    between atoms: _500  and  _501
REMARK  213  A    between atoms: _500  and  _503
REMARK  214  A    between atoms: _503  and  _504
REMARK  215  A    between atoms: _509  and  _510
REMARK  216  A    between atoms: _512  and  _514
REMARK  217  A    between atoms: _514  and  _515
REMARK  218  A    between atoms: _514  and  _517
REMARK  219  A    between atoms: _519  and  _521
REMARK  220  A    between atoms: _521  and  _522
REMARK  221  A    between atoms: _521  and  _524
REMARK  222  A    between atoms: _524  and  _525
REMARK  223  A    between atoms: _528  and  _530
REMARK  224  A    between atoms: _530  and  _531
REMARK  225  A    between atoms: _530  and  _533
REMARK  226  A    between atoms: _533  and  _534
REMARK  227  A    between atoms: _537  and  _539
REMARK  228  A    between atoms: _539  and  _540
REMARK  229  A    between atoms: _539  and  _542
REMARK  230  A    between atoms: _542  and  _543
REMARK  231  A    between atoms: _543  and  _544
REMARK  232  A    between atoms: _544  and  _545
REMARK  233  A    between atoms: _545  and  _546
REMARK  234  A    between atoms: _550  and  _552
REMARK  235  A    between atoms: _552  and  _553
REMARK  236  A    between atoms: _552  and  _555
REMARK  237  A    between atoms: _555  and  _556
REMARK  238  A    between atoms: _556  and  _557
REMARK  239  A    between atoms: _557  and  _558
REMARK  240  A    between atoms: _558  and  _559
REMARK  241  A    between atoms: _563  and  _565
REMARK  242  A    between atoms: _565  and  _566
REMARK  243  A    between atoms: _565  and  _568
REMARK  244  A    between atoms: _568  and  _569
REMARK  245  A    between atoms: _569  and  _570
REMARK  246  A    between atoms: _570  and  _571
REMARK  247  A    between atoms: _580  and  _582
REMARK  248  A    between atoms: _582  and  _583
REMARK  249  A    between atoms: _582  and  _585
REMARK  250  A    between atoms: _585  and  _586
REMARK  251  A    between atoms: _589  and  _591
REMARK  252  A    between atoms: _591  and  _592
REMARK  253  A    between atoms: _595  and  _597
REMARK  254  A    between atoms: _597  and  _598
REMARK  255  A    between atoms: _597  and  _600
REMARK  256  A    between atoms: _600  and  _601
REMARK  257  A    between atoms: _601  and  _602
REMARK                            x       y       z     vdW  Elec       q    Type
REMARK                         _______ _______ _______ _____ _____    ______ ____
ROOT
ATOM      1  NE  ARG A   1       5.158   1.062  37.351  0.00  0.00    -0.265 N 
ATOM      2  CZ  ARG A   1       5.442   2.112  38.107  0.00  0.00    +0.342 C 
ATOM      3  NH2 ARG A   1       6.220   1.963  39.170  0.00  0.00    -0.292 N 
ATOM      4 HH21 ARG A   1       6.447   2.783  39.768  0.00  0.00    +0.255 HD
ATOM      5 HH22 ARG A   1       6.604   1.026  39.406  0.00  0.00    +0.255 HD
ATOM      6  NH1 ARG A   1       4.961   3.312  37.816  0.00  0.00    -0.292 N 
ATOM      7 HH11 ARG A   1       5.194   4.126  38.420  0.00  0.00    +0.255 HD
ATOM      8 HH12 ARG A   1       4.351   3.440  36.984  0.00  0.00    +0.255 HD
ATOM      9  HE  ARG A   1       5.569   0.148  37.629  0.00  0.00    +0.259 HD
ENDROOT
BRANCH   1  10
ATOM     10  CD  ARG A   1       4.312   1.084  36.155  0.00  0.00    +0.174 C 
BRANCH  10  11
ATOM     11  CG  ARG A   1       2.830   0.902  36.464  0.00  0.00    +0.045 C 
BRANCH  11  12
ATOM     12  CB  ARG A   1       1.972   0.810  35.218  0.00  0.00    +0.029 C 
BRANCH  12  13
ATOM     13  CA  ARG A   1       0.526   0.401  35.478  0.00  0.00    +0.133 C 
BRANCH  13  14
ATOM     14  N   ARG A   1      -0.116  -0.026  34.240  0.00  0.00    -0.239 NA
ATOM     15  H   ARG A   1      -0.769   0.629  33.765  0.00  0.00    +0.142 HD
ENDBRANCH  13  14
BRANCH  13  16
ATOM     16  C   ARG A   1      -0.262   1.579  36.026  0.00  0.00    +0.224 C 
ATOM     17  O   ARG A   1      -0.553   2.520  35.300  0.00  0.00    -0.287 OA
ENDBRANCH  13  16
ENDBRANCH  12  13
ENDBRANCH  11  12
ENDBRANCH  10  11
ENDBRANCH   1  10
TORSDOF 6
REMARK  Name = ../refined-set-2016/3cd5/3cd5_pocket.pdb
REMARK  257 active torsions:
REMARK  status: ('A' for Active; 'I' for Inactive)
REMARK    1  A    between atoms: _1  and  _3
REMARK    2  A    between atoms: _3  and  _4
REMARK    3  A    between atoms: _3  and  _6
REMARK    4  A    between atoms: _6  and  _7
REMARK    5  A    between atoms: _7  and  _8
REMARK    6  A    between atoms: _11  and  _13
REMARK    7  A    between atoms: _13  and  _14
REMARK    8  A    between atoms: _16  and  _18
REMARK    9  A    between atoms: _18  and  _19
REMARK   10  A    between atoms: _18  and  _21
REMARK   11  A    between atoms: _23  and  _25
REMARK   12  A    between atoms: _25  and  _26
REMARK   13  A    between atoms: _25  and  _28
REMARK   14  A    between atoms: _28  and  _29
REMARK   15  A    between atoms: _32  and  _34
REMARK   16  A    between atoms: _34  and  _35
REMARK   17  A    between atoms: _34  and  _37
REMARK   18  A    between atoms: _40  and  _42
REMARK   19  A    between atoms: _42  and  _43
REMARK   20  A    between atoms: _46  and  _48
REMARK   21  A    between atoms: _48  and  _49
REMARK   22  A    between atoms: _48  and  _51
REMARK   23  A    between atoms: _51  and  _52
REMARK   24  A    between atoms: _54  and  _56
REMARK   25  A    between atoms: _56  and  _57
REMARK   26  A    between atoms: _56  and  _59
REMARK   27  A    between atoms: _59  and  _60
REMARK   28  A    between atoms: _63  and  _65
REMARK   29  A    between atoms: _65  and  _66
REMARK   30  A    between atoms: _65  and  _68
REMARK   31  A    between atoms: _68  and  _69
REMARK   32  A    between atoms: _74  and  _76
REMARK   33  A    between atoms: _76  and  _77
REMARK   34  A    between atoms: _76  and  _79
REMARK   35  A    between atoms: _79  and  _80
REMARK   36  A    between atoms: _80  and  _81
REMARK   37  A    between atoms: _81  and  _82
REMARK   38  A    between atoms: _91  and  _93
REMARK   39  A    between atoms: _93  and  _94
REMARK   40  A    between atoms: _96  and  _98
REMARK   41  A    between atoms: _98  and  _99
REMARK   42  A    between atoms: _98  and  _101
REMARK   43  A    between atoms: _101  and  _102
REMARK   44  A    between atoms: _102  and  _103
REMARK   45  A    between atoms: _106  and  _108
REMARK   46  A    between atoms: _108  and  _109
REMARK   47  A    between atoms: _108  and  _111
REMARK   48  A    between atoms: _114  and  _116
REMARK   49  A    between atoms: _116  and  _117
REMARK   50  A    between atoms: _116  and  _119
REMARK   51  A    between atoms: _119  and  _120
REMARK   52  A    between atoms: _123  and  _125
REMARK   53  A    between atoms: _125  and  _126
REMARK   54  A    between atoms: _125  and  _128
REMARK   55  A    between atoms: _128  and  _129
REMARK   56  A    between atoms: _129  and  _130
REMARK   57  A    between atoms: _130  and  _131
REMARK   58  A    between atoms: _131  and  _132
REMARK   59  A    between atoms: _136  and  _138
REMARK   60  A    between atoms: _138  and  _139
REMARK   61  A    between atoms: _138  and  _141
REMARK   62  A    between atoms: _141  and  _142
REMARK   63  A    between atoms: _142  and  _143
REMARK   64  A    between atoms: _143  and  _144
REMARK   65  A    between atoms: _144  and  _145
REMARK   66  A    between atoms: _149  and  _151
REMARK   67  A    between atoms: _151  and  _152
REMARK   68  A    between atoms: _151  and  _154
REMARK   69  A    between atoms: _154  and  _155
REMARK   70  A    between atoms: _160  and  _162
REMARK   71  A    between atoms: _162  and  _163
REMARK   72  A    between atoms: _162  and  _165
REMARK   73  A    between atoms: _165  and  _166
REMARK   74  A    between atoms: _171  and  _173
REMARK   75  A    between atoms: _173  and  _174
REMARK   76  A    between atoms: _177  and  _179
REMARK   77  A    between atoms: _179  and  _180
REMARK   78  A    between atoms: _179  and  _182
REMARK   79  A    between atoms: _182  and  _183
REMARK   80  A    between atoms: _188  and  _190
REMARK   81  A    between atoms: _190  and  _191
REMARK   82  A    between atoms: _194  and  _196
REMARK   83  A    between atoms: _196  and  _197
REMARK   84  A    between atoms: _200  and  _202
REMARK   85  A    between atoms: _202  and  _203
REMARK   86  A    between atoms: _202  and  _205
REMARK   87  A    between atoms: _205  and  _206
REMARK   88  A    between atoms: _211  and  _213
REMARK   89  A    between atoms: _213  and  _214
REMARK   90  A    between atoms: _213  and  _216
REMARK   91  A    between atoms: _216  and  _217
REMARK   92  A    between atoms: _220  and  _222
REMARK   93  A    between atoms: _222  and  _223
REMARK   94  A    between atoms: _225  and  _227
REMARK   95  A    between atoms: _227  and  _228
REMARK   96  A    between atoms: _227  and  _230
REMARK   97  A    between atoms: _230  and  _231
REMARK   98  A    between atoms: _231  and  _232
REMARK   99  A    between atoms: _235  and  _237
REMARK  100  A    between atoms: _237  and  _238
REMARK  101  A    between atoms: _237  and  _240
REMARK  102  A    between atoms: _240  and  _241
REMARK  103  A    between atoms: _244  and  _246
REMARK  104  A    between atoms: _246  and  _247
REMARK  105  A    between atoms: _246  and  _249
REMARK  106  A    between atoms: _249  and  _250
REMARK  107  A    between atoms: _252  and  _254
REMARK  108  A    between atoms: _254  and  _255
REMARK  109  A    between atoms: _254  and  _257
REMARK  110  A    between atoms: _257  and  _258
REMARK  111  A    between atoms: _261  and  _263
REMARK  112  A    between atoms: _263  and  _264
REMARK  113  A    between atoms: _263  and  _266
REMARK  114  A    between atoms: _266  and  _267
REMARK  115  A    between atoms: _267  and  _268
REMARK  116  A    between atoms: _270  and  _272
REMARK  117  A    between atoms: _272  and  _273
REMARK  118  A    between atoms: _276  and  _278
REMARK  119  A    between atoms: _278  and  _279
REMARK  120  A    between atoms: _282  and  _284
REMARK  121  A    between atoms: _284  and  _285
REMARK  122  A    between atoms: _284  and  _287
REMARK  123  A    between atoms: _287  and  _288
REMARK  124  A    between atoms: _291  and  _293
REMARK  125  A    between atoms: _293  and  _294
REMARK  126  A    between atoms: _297  and  _299
REMARK  127  A    between atoms: _299  and  _300
REMARK  128  A    between atoms: _303  and  _305
REMARK  129  A    between atoms: _305  and  _306
REMARK  130  A    between atoms: _308  and  _310
REMARK  131  A    between atoms: _310  and  _311
REMARK  132  A    between atoms: _310  and  _313
REMARK  133  A    between atoms: _313  and  _314
REMARK  134  A    between atoms: _319  and  _321
REMARK  135  A    between atoms: _321  and  _322
REMARK  136  A    between atoms: _321  and  _324
REMARK  137  A    between atoms: _324  and  _325
REMARK  138  A    between atoms: _328  and  _330
REMARK  139  A    between atoms: _330  and  _331
REMARK  140  A    between atoms: _330  and  _333
REMARK  141  A    between atoms: _336  and  _338
REMARK  142  A    between atoms: _338  and  _339
REMARK  143  A    between atoms: _338  and  _341
REMARK  144  A    between atoms: _341  and  _342
REMARK  145  A    between atoms: _342  and  _343
REMARK  146  A    between atoms: _343  and  _344
REMARK  147  A    between atoms: _344  and  _345
REMARK  148  A    between atoms: _349  and  _351
REMARK  149  A    between atoms: _351  and  _352
REMARK  150  A    between atoms: _351  and  _354
REMARK  151  A    between atoms: _354  and  _355
REMARK  152  A    between atoms: _357  and  _359
REMARK  153  A    between atoms: _359  and  _360
REMARK  154  A    between atoms: _359  and  _362
REMARK  155  A    between atoms: _362  and  _363
REMARK  156  A    between atoms: _368  and  _369
REMARK  157  A    between atoms: _371  and  _373
REMARK  158  A    between atoms: _373  and  _374
REMARK  159  A    between atoms: _373  and  _376
REMARK  160  A    between atoms: _376  and  _377
REMARK  161  A    between atoms: _377  and  _378
REMARK  162  A    between atoms: _381  and  _383
REMARK  163  A    between atoms: _383  and  _384
REMARK  164  A    between atoms: _383  and  _386
REMARK  165  A    between atoms: _386  and  _387
REMARK  166  A    between atoms: _392  and  _394
REMARK  167  A    between atoms: _394  and  _395
REMARK  168  A    between atoms: _394  and  _397
REMARK  169  A    between atoms: _397  and  _398
REMARK  170  A    between atoms: _401  and  _403
REMARK  171  A    between atoms: _403  and  _404
REMARK  172  A    between atoms: _403  and  _406
REMARK  173  A    between atoms: _406  and  _407
REMARK  174  A    between atoms: _407  and  _408
REMARK  175  A    between atoms: _408  and  _409
REMARK  176  A    between atoms: _418  and  _420
REMARK  177  A    between atoms: _420  and  _421
REMARK  178  A    between atoms: _423  and  _425
REMARK  179  A    between atoms: _425  and  _426
REMARK  180  A    between atoms: _425  and  _428
REMARK  181  A    between atoms: _428  and  _429
REMARK  182  A    between atoms: _429  and  _430
REMARK  183  A    between atoms: _432  and  _434
REMARK  184  A    between atoms: _434  and  _435
REMARK  185  A    between atoms: _434  and  _437
REMARK  186  A    between atoms: _437  and  _438
REMARK  187  A    between atoms: _438  and  _439
REMARK  188  A    between atoms: _441  and  _443
REMARK  189  A    between atoms: _443  and  _444
REMARK  190  A    between atoms: _443  and  _446
REMARK  191  A    between atoms: _446  and  _447
REMARK  192  A    between atoms: _452  and  _454
REMARK  193  A    between atoms: _454  and  _455
REMARK  194  A    between atoms: _454  and  _457
REMARK  195  A    between atoms: _457  and  _458
REMARK  196  A    between atoms: _460  and  _462
REMARK  197  A    between atoms: _462  and  _463
REMARK  198  A    between atoms: _466  and  _468
REMARK  199  A    between atoms: _468  and  _469
REMARK  200  A    between atoms: _468  and  _471
REMARK  201  A    between atoms: _474  and  _476
REMARK  202  A    between atoms: _476  and  _477
REMARK  203  A    between atoms: _476  and  _479
REMARK  204  A    between atoms: _479  and  _480
REMARK  205  A    between atoms: _482  and  _484
REMARK  206  A    between atoms: _484  and  _485
REMARK  207  A    between atoms: _487  and  _489
REMARK  208  A    between atoms: _489  and  _490
REMARK  209  A    between atoms: _489  and  _492
REMARK  210  A    between atoms: _492  and  _493
REMARK  211  A    between atoms: _498  and  _500
REMARK  212  A    between atoms: _500  and  _501
REMARK  213  A    between atoms: _500  and  _503
REMARK  214  A    between atoms: _503  and  _504
REMARK  215  A    between atoms: _509  and  _510
REMARK  216  A    between atoms: _512  and  _514
REMARK  217  A    between atoms: _514  and  _515
REMARK  218  A    between atoms: _514  and  _517
REMARK  219  A    between atoms: _519  and  _521
REMARK  220  A    between atoms: _521  and  _522
REMARK  221  A    between atoms: _521  and  _524
REMARK  222  A    between atoms: _524  and  _525
REMARK  223  A    between atoms: _528  and  _530
REMARK  224  A    between atoms: _530  and  _531
REMARK  225  A    between atoms: _530  and  _533
REMARK  226  A    between atoms: _533  and  _534
REMARK  227  A    between atoms: _537  and  _539
REMARK  228  A    between atoms: _539  and  _540
REMARK  229  A    between atoms: _539  and  _542
REMARK  230  A    between atoms: _542  and  _543
REMARK  231  A    between atoms: _543  and  _544
REMARK  232  A    between atoms: _544  and  _545
REMARK  233  A    between atoms: _545  and  _546
REMARK  234  A    between atoms: _550  and  _552
REMARK  235  A    between atoms: _552  and  _553
REMARK  236  A    between atoms: _552  and  _555
REMARK  237  A    between atoms: _555  and  _556
REMARK  238  A    between atoms: _556  and  _557
REMARK  239  A    between atoms: _557  and  _558
REMARK  240  A    between atoms: _558  and  _559
REMARK  241  A    between atoms: _563  and  _565
REMARK  242  A    between atoms: _565  and  _566
REMARK  243  A    between atoms: _565  and  _568
REMARK  244  A    between atoms: _568  and  _569
REMARK  245  A    between atoms: _569  and  _570
REMARK  246  A    between atoms: _570  and  _571
REMARK  247  A    between atoms: _580  and  _582
REMARK  248  A    between atoms: _582  and  _583
REMARK  249  A    between atoms: _582  and  _585
REMARK  250  A    between atoms: _585  and  _586
REMARK  251  A    between atoms: _589  and  _591
REMARK  252  A    between atoms: _591  and  _592
REMARK  253  A    between atoms: _595  and  _597
REMARK  254  A    between atoms: _597  and  _598
REMARK  255  A    between atoms: _597  and  _600
REMARK  256  A    between atoms: _600  and  _601
REMARK  257  A    between atoms: _601  and  _602
REMARK                            x       y       z     vdW  Elec       q    Type
REMARK                         _______ _______ _______ _____ _____    ______ ____
ROOT
ATOM      1  CA  ASP A   1       5.125  13.288  40.147  0.00  0.00    +0.144 C 
ENDROOT
BRANCH   1   2
ATOM      2  N   ASP A   1       3.729  13.383  40.545  0.00  0.00    -0.239 NA
ATOM      3  H   ASP A   1       3.177  12.507  40.640  0.00  0.00    +0.142 HD
ENDBRANCH   1   2
BRANCH   1   4
ATOM      4  C   ASP A   1       5.187  13.543  38.649  0.00  0.00    +0.225 C 
ATOM      5  O   ASP A   1       4.734  12.719  37.856  0.00  0.00    -0.287 OA
ENDBRANCH   1   4
BRANCH   1   6
ATOM      6  CB  ASP A   1       5.685  11.905  40.490  0.00  0.00    +0.139 C 
BRANCH   6   7
ATOM      7  CG  ASP A   1       7.211  11.870  40.510  0.00  0.00    +0.367 C 
ATOM      8  OD2 ASP A   1       7.864  11.090  41.235  0.00  0.00    -0.246 OA
ATOM      9  OD1 ASP A   1       7.848  12.639  39.771  0.00  0.00    -0.246 OA
ENDBRANCH   6   7
ENDBRANCH   1   6
TORSDOF 4
REMARK  Name = ../refined-set-2016/3cd5/3cd5_pocket.pdb
REMARK  257 active torsions:
REMARK  status: ('A' for Active; 'I' for Inactive)
REMARK    1  A    between atoms: _1  and  _3
REMARK    2  A    between atoms: _3  and  _4
REMARK    3  A    between atoms: _3  and  _6
REMARK    4  A    between atoms: _6  and  _7
REMARK    5  A    between atoms: _7  and  _8
REMARK    6  A    between atoms: _11  and  _13
REMARK    7  A    between atoms: _13  and  _14
REMARK    8  A    between atoms: _16  and  _18
REMARK    9  A    between atoms: _18  and  _19
REMARK   10  A    between atoms: _18  and  _21
REMARK   11  A    between atoms: _23  and  _25
REMARK   12  A    between atoms: _25  and  _26
REMARK   13  A    between atoms: _25  and  _28
REMARK   14  A    between atoms: _28  and  _29
REMARK   15  A    between atoms: _32  and  _34
REMARK   16  A    between atoms: _34  and  _35
REMARK   17  A    between atoms: _34  and  _37
REMARK   18  A    between atoms: _40  and  _42
REMARK   19  A    between atoms: _42  and  _43
REMARK   20  A    between atoms: _46  and  _48
REMARK   21  A    between atoms: _48  and  _49
REMARK   22  A    between atoms: _48  and  _51
REMARK   23  A    between atoms: _51  and  _52
REMARK   24  A    between atoms: _54  and  _56
REMARK   25  A    between atoms: _56  and  _57
REMARK   26  A    between atoms: _56  and  _59
REMARK   27  A    between atoms: _59  and  _60
REMARK   28  A    between atoms: _63  and  _65
REMARK   29  A    between atoms: _65  and  _66
REMARK   30  A    between atoms: _65  and  _68
REMARK   31  A    between atoms: _68  and  _69
REMARK   32  A    between atoms: _74  and  _76
REMARK   33  A    between atoms: _76  and  _77
REMARK   34  A    between atoms: _76  and  _79
REMARK   35  A    between atoms: _79  and  _80
REMARK   36  A    between atoms: _80  and  _81
REMARK   37  A    between atoms: _81  and  _82
REMARK   38  A    between atoms: _91  and  _93
REMARK   39  A    between atoms: _93  and  _94
REMARK   40  A    between atoms: _96  and  _98
REMARK   41  A    between atoms: _98  and  _99
REMARK   42  A    between atoms: _98  and  _101
REMARK   43  A    between atoms: _101  and  _102
REMARK   44  A    between atoms: _102  and  _103
REMARK   45  A    between atoms: _106  and  _108
REMARK   46  A    between atoms: _108  and  _109
REMARK   47  A    between atoms: _108  and  _111
REMARK   48  A    between atoms: _114  and  _116
REMARK   49  A    between atoms: _116  and  _117
REMARK   50  A    between atoms: _116  and  _119
REMARK   51  A    between atoms: _119  and  _120
REMARK   52  A    between atoms: _123  and  _125
REMARK   53  A    between atoms: _125  and  _126
REMARK   54  A    between atoms: _125  and  _128
REMARK   55  A    between atoms: _128  and  _129
REMARK   56  A    between atoms: _129  and  _130
REMARK   57  A    between atoms: _130  and  _131
REMARK   58  A    between atoms: _131  and  _132
REMARK   59  A    between atoms: _136  and  _138
REMARK   60  A    between atoms: _138  and  _139
REMARK   61  A    between atoms: _138  and  _141
REMARK   62  A    between atoms: _141  and  _142
REMARK   63  A    between atoms: _142  and  _143
REMARK   64  A    between atoms: _143  and  _144
REMARK   65  A    between atoms: _144  and  _145
REMARK   66  A    between atoms: _149  and  _151
REMARK   67  A    between atoms: _151  and  _152
REMARK   68  A    between atoms: _151  and  _154
REMARK   69  A    between atoms: _154  and  _155
REMARK   70  A    between atoms: _160  and  _162
REMARK   71  A    between atoms: _162  and  _163
REMARK   72  A    between atoms: _162  and  _165
REMARK   73  A    between atoms: _165  and  _166
REMARK   74  A    between atoms: _171  and  _173
REMARK   75  A    between atoms: _173  and  _174
REMARK   76  A    between atoms: _177  and  _179
REMARK   77  A    between atoms: _179  and  _180
REMARK   78  A    between atoms: _179  and  _182
REMARK   79  A    between atoms: _182  and  _183
REMARK   80  A    between atoms: _188  and  _190
REMARK   81  A    between atoms: _190  and  _191
REMARK   82  A    between atoms: _194  and  _196
REMARK   83  A    between atoms: _196  and  _197
REMARK   84  A    between atoms: _200  and  _202
REMARK   85  A    between atoms: _202  and  _203
REMARK   86  A    between atoms: _202  and  _205
REMARK   87  A    between atoms: _205  and  _206
REMARK   88  A    between atoms: _211  and  _213
REMARK   89  A    between atoms: _213  and  _214
REMARK   90  A    between atoms: _213  and  _216
REMARK   91  A    between atoms: _216  and  _217
REMARK   92  A    between atoms: _220  and  _222
REMARK   93  A    between atoms: _222  and  _223
REMARK   94  A    between atoms: _225  and  _227
REMARK   95  A    between atoms: _227  and  _228
REMARK   96  A    between atoms: _227  and  _230
REMARK   97  A    between atoms: _230  and  _231
REMARK   98  A    between atoms: _231  and  _232
REMARK   99  A    between atoms: _235  and  _237
REMARK  100  A    between atoms: _237  and  _238
REMARK  101  A    between atoms: _237  and  _240
REMARK  102  A    between atoms: _240  and  _241
REMARK  103  A    between atoms: _244  and  _246
REMARK  104  A    between atoms: _246  and  _247
REMARK  105  A    between atoms: _246  and  _249
REMARK  106  A    between atoms: _249  and  _250
REMARK  107  A    between atoms: _252  and  _254
REMARK  108  A    between atoms: _254  and  _255
REMARK  109  A    between atoms: _254  and  _257
REMARK  110  A    between atoms: _257  and  _258
REMARK  111  A    between atoms: _261  and  _263
REMARK  112  A    between atoms: _263  and  _264
REMARK  113  A    between atoms: _263  and  _266
REMARK  114  A    between atoms: _266  and  _267
REMARK  115  A    between atoms: _267  and  _268
REMARK  116  A    between atoms: _270  and  _272
REMARK  117  A    between atoms: _272  and  _273
REMARK  118  A    between atoms: _276  and  _278
REMARK  119  A    between atoms: _278  and  _279
REMARK  120  A    between atoms: _282  and  _284
REMARK  121  A    between atoms: _284  and  _285
REMARK  122  A    between atoms: _284  and  _287
REMARK  123  A    between atoms: _287  and  _288
REMARK  124  A    between atoms: _291  and  _293
REMARK  125  A    between atoms: _293  and  _294
REMARK  126  A    between atoms: _297  and  _299
REMARK  127  A    between atoms: _299  and  _300
REMARK  128  A    between atoms: _303  and  _305
REMARK  129  A    between atoms: _305  and  _306
REMARK  130  A    between atoms: _308  and  _310
REMARK  131  A    between atoms: _310  and  _311
REMARK  132  A    between atoms: _310  and  _313
REMARK  133  A    between atoms: _313  and  _314
REMARK  134  A    between atoms: _319  and  _321
REMARK  135  A    between atoms: _321  and  _322
REMARK  136  A    between atoms: _321  and  _324
REMARK  137  A    between atoms: _324  and  _325
REMARK  138  A    between atoms: _328  and  _330
REMARK  139  A    between atoms: _330  and  _331
REMARK  140  A    between atoms: _330  and  _333
REMARK  141  A    between atoms: _336  and  _338
REMARK  142  A    between atoms: _338  and  _339
REMARK  143  A    between atoms: _338  and  _341
REMARK  144  A    between atoms: _341  and  _342
REMARK  145  A    between atoms: _342  and  _343
REMARK  146  A    between atoms: _343  and  _344
REMARK  147  A    between atoms: _344  and  _345
REMARK  148  A    between atoms: _349  and  _351
REMARK  149  A    between atoms: _351  and  _352
REMARK  150  A    between atoms: _351  and  _354
REMARK  151  A    between atoms: _354  and  _355
REMARK  152  A    between atoms: _357  and  _359
REMARK  153  A    between atoms: _359  and  _360
REMARK  154  A    between atoms: _359  and  _362
REMARK  155  A    between atoms: _362  and  _363
REMARK  156  A    between atoms: _368  and  _369
REMARK  157  A    between atoms: _371  and  _373
REMARK  158  A    between atoms: _373  and  _374
REMARK  159  A    between atoms: _373  and  _376
REMARK  160  A    between atoms: _376  and  _377
REMARK  161  A    between atoms: _377  and  _378
REMARK  162  A    between atoms: _381  and  _383
REMARK  163  A    between atoms: _383  and  _384
REMARK  164  A    between atoms: _383  and  _386
REMARK  165  A    between atoms: _386  and  _387
REMARK  166  A    between atoms: _392  and  _394
REMARK  167  A    between atoms: _394  and  _395
REMARK  168  A    between atoms: _394  and  _397
REMARK  169  A    between atoms: _397  and  _398
REMARK  170  A    between atoms: _401  and  _403
REMARK  171  A    between atoms: _403  and  _404
REMARK  172  A    between atoms: _403  and  _406
REMARK  173  A    between atoms: _406  and  _407
REMARK  174  A    between atoms: _407  and  _408
REMARK  175  A    between atoms: _408  and  _409
REMARK  176  A    between atoms: _418  and  _420
REMARK  177  A    between atoms: _420  and  _421
REMARK  178  A    between atoms: _423  and  _425
REMARK  179  A    between atoms: _425  and  _426
REMARK  180  A    between atoms: _425  and  _428
REMARK  181  A    between atoms: _428  and  _429
REMARK  182  A    between atoms: _429  and  _430
REMARK  183  A    between atoms: _432  and  _434
REMARK  184  A    between atoms: _434  and  _435
REMARK  185  A    between atoms: _434  and  _437
REMARK  186  A    between atoms: _437  and  _438
REMARK  187  A    between atoms: _438  and  _439
REMARK  188  A    between atoms: _441  and  _443
REMARK  189  A    between atoms: _443  and  _444
REMARK  190  A    between atoms: _443  and  _446
REMARK  191  A    between atoms: _446  and  _447
REMARK  192  A    between atoms: _452  and  _454
REMARK  193  A    between atoms: _454  and  _455
REMARK  194  A    between atoms: _454  and  _457
REMARK  195  A    between atoms: _457  and  _458
REMARK  196  A    between atoms: _460  and  _462
REMARK  197  A    between atoms: _462  and  _463
REMARK  198  A    between atoms: _466  and  _468
REMARK  199  A    between atoms: _468  and  _469
REMARK  200  A    between atoms: _468  and  _471
REMARK  201  A    between atoms: _474  and  _476
REMARK  202  A    between atoms: _476  and  _477
REMARK  203  A    between atoms: _476  and  _479
REMARK  204  A    between atoms: _479  and  _480
REMARK  205  A    between atoms: _482  and  _484
REMARK  206  A    between atoms: _484  and  _485
REMARK  207  A    between atoms: _487  and  _489
REMARK  208  A    between atoms: _489  and  _490
REMARK  209  A    between atoms: _489  and  _492
REMARK  210  A    between atoms: _492  and  _493
REMARK  211  A    between atoms: _498  and  _500
REMARK  212  A    between atoms: _500  and  _501
REMARK  213  A    between atoms: _500  and  _503
REMARK  214  A    between atoms: _503  and  _504
REMARK  215  A    between atoms: _509  and  _510
REMARK  216  A    between atoms: _512  and  _514
REMARK  217  A    between atoms: _514  and  _515
REMARK  218  A    between atoms: _514  and  _517
REMARK  219  A    between atoms: _519  and  _521
REMARK  220  A    between atoms: _521  and  _522
REMARK  221  A    between atoms: _521  and  _524
REMARK  222  A    between atoms: _524  and  _525
REMARK  223  A    between atoms: _528  and  _530
REMARK  224  A    between atoms: _530  and  _531
REMARK  225  A    between atoms: _530  and  _533
REMARK  226  A    between atoms: _533  and  _534
REMARK  227  A    between atoms: _537  and  _539
REMARK  228  A    between atoms: _539  and  _540
REMARK  229  A    between atoms: _539  and  _542
REMARK  230  A    between atoms: _542  and  _543
REMARK  231  A    between atoms: _543  and  _544
REMARK  232  A    between atoms: _544  and  _545
REMARK  233  A    between atoms: _545  and  _546
REMARK  234  A    between atoms: _550  and  _552
REMARK  235  A    between atoms: _552  and  _553
REMARK  236  A    between atoms: _552  and  _555
REMARK  237  A    between atoms: _555  and  _556
REMARK  238  A    between atoms: _556  and  _557
REMARK  239  A    between atoms: _557  and  _558
REMARK  240  A    between atoms: _558  and  _559
REMARK  241  A    between atoms: _563  and  _565
REMARK  242  A    between atoms: _565  and  _566
REMARK  243  A    between atoms: _565  and  _568
REMARK  244  A    between atoms: _568  and  _569
REMARK  245  A    between atoms: _569  and  _570
REMARK  246  A    between atoms: _570  and  _571
REMARK  247  A    between atoms: _580  and  _582
REMARK  248  A    between atoms: _582  and  _583
REMARK  249  A    between atoms: _582  and  _585
REMARK  250  A    between atoms: _585  and  _586
REMARK  251  A    between atoms: _589  and  _591
REMARK  252  A    between atoms: _591  and  _592
REMARK  253  A    between atoms: _595  and  _597
REMARK  254  A    between atoms: _597  and  _598
REMARK  255  A    between atoms: _597  and  _600
REMARK  256  A    between atoms: _600  and  _601
REMARK  257  A    between atoms: _601  and  _602
REMARK                            x       y       z     vdW  Elec       q    Type
REMARK                         _______ _______ _______ _____ _____    ______ ____
ROOT
ATOM      1  CA  GLN A   2       5.930   9.925  35.681  0.00  0.00    +0.137 C 
ENDROOT
BRANCH   1   3
ATOM      2  C   ALA A   1       7.873  11.412  35.441  0.00  0.00    +0.238 C 
ATOM      3  N   GLN A   2       6.756  11.067  36.084  0.00  0.00    -0.298 N 
ATOM      4  H   GLN A   2       6.459  11.632  36.905  0.00  0.00    +0.150 HD
ATOM      5  O   ALA A   1       8.339  10.760  34.504  0.00  0.00    -0.274 OA
BRANCH   2   6
ATOM      6  CA  ALA A   1       8.581  12.682  35.925  0.00  0.00    +0.145 C 
ATOM      7  CB  ALA A   1       9.774  12.320  36.801  0.00  0.00    +0.028 C 
BRANCH   6   8
ATOM      8  N   ALA A   1       7.688  13.602  36.633  0.00  0.00    -0.238 NA
ATOM      9  H   ALA A   1       7.859  13.799  37.640  0.00  0.00    +0.142 HD
ENDBRANCH   6   8
ENDBRANCH   2   6
ENDBRANCH   1   3
BRANCH   1  10
ATOM     10  C   GLN A   2       5.026  10.230  34.487  0.00  0.00    +0.227 C 
ATOM     11  O   GLN A   2       4.181   9.423  34.135  0.00  0.00    -0.286 OA
ENDBRANCH   1  10
BRANCH   1  12
ATOM     12  CB  GLN A   2       5.076   9.436  36.859  0.00  0.00    +0.037 C 
BRANCH  12  13
ATOM     13  CG  GLN A   2       5.885   8.810  37.979  0.00  0.00    +0.087 C 
BRANCH  13  14
ATOM     14  CD  GLN A   2       5.039   7.993  38.945  0.00  0.00    +0.219 C 
ATOM     15  NE2 GLN A   2       5.570   6.851  39.389  0.00  0.00    -0.329 N 
ATOM     16 HE21 GLN A   2       5.041   6.258  40.060  0.00  0.00    +0.145 HD
ATOM     17 HE22 GLN A   2       6.513   6.555  39.064  0.00  0.00    +0.145 HD
ATOM     18  OE1 GLN A   2       3.925   8.396  39.295  0.00  0.00    -0.275 OA
ENDBRANCH  13  14
ENDBRANCH  12  13
ENDBRANCH   1  12
TORSDOF 7
REMARK  Name = ../refined-set-2016/3cd5/3cd5_pocket.pdb
REMARK  257 active torsions:
REMARK  status: ('A' for Active; 'I' for Inactive)
REMARK    1  A    between atoms: _1  and  _3
REMARK    2  A    between atoms: _3  and  _4
REMARK    3  A    between atoms: _3  and  _6
REMARK    4  A    between atoms: _6  and  _7
REMARK    5  A    between atoms: _7  and  _8
REMARK    6  A    between atoms: _11  and  _13
REMARK    7  A    between atoms: _13  and  _14
REMARK    8  A    between atoms: _16  and  _18
REMARK    9  A    between atoms: _18  and  _19
REMARK   10  A    between atoms: _18  and  _21
REMARK   11  A    between atoms: _23  and  _25
REMARK   12  A    between atoms: _25  and  _26
REMARK   13  A    between atoms: _25  and  _28
REMARK   14  A    between atoms: _28  and  _29
REMARK   15  A    between atoms: _32  and  _34
REMARK   16  A    between atoms: _34  and  _35
REMARK   17  A    between atoms: _34  and  _37
REMARK   18  A    between atoms: _40  and  _42
REMARK   19  A    between atoms: _42  and  _43
REMARK   20  A    between atoms: _46  and  _48
REMARK   21  A    between atoms: _48  and  _49
REMARK   22  A    between atoms: _48  and  _51
REMARK   23  A    between atoms: _51  and  _52
REMARK   24  A    between atoms: _54  and  _56
REMARK   25  A    between atoms: _56  and  _57
REMARK   26  A    between atoms: _56  and  _59
REMARK   27  A    between atoms: _59  and  _60
REMARK   28  A    between atoms: _63  and  _65
REMARK   29  A    between atoms: _65  and  _66
REMARK   30  A    between atoms: _65  and  _68
REMARK   31  A    between atoms: _68  and  _69
REMARK   32  A    between atoms: _74  and  _76
REMARK   33  A    between atoms: _76  and  _77
REMARK   34  A    between atoms: _76  and  _79
REMARK   35  A    between atoms: _79  and  _80
REMARK   36  A    between atoms: _80  and  _81
REMARK   37  A    between atoms: _81  and  _82
REMARK   38  A    between atoms: _91  and  _93
REMARK   39  A    between atoms: _93  and  _94
REMARK   40  A    between atoms: _96  and  _98
REMARK   41  A    between atoms: _98  and  _99
REMARK   42  A    between atoms: _98  and  _101
REMARK   43  A    between atoms: _101  and  _102
REMARK   44  A    between atoms: _102  and  _103
REMARK   45  A    between atoms: _106  and  _108
REMARK   46  A    between atoms: _108  and  _109
REMARK   47  A    between atoms: _108  and  _111
REMARK   48  A    between atoms: _114  and  _116
REMARK   49  A    between atoms: _116  and  _117
REMARK   50  A    between atoms: _116  and  _119
REMARK   51  A    between atoms: _119  and  _120
REMARK   52  A    between atoms: _123  and  _125
REMARK   53  A    between atoms: _125  and  _126
REMARK   54  A    between atoms: _125  and  _128
REMARK   55  A    between atoms: _128  and  _129
REMARK   56  A    between atoms: _129  and  _130
REMARK   57  A    between atoms: _130  and  _131
REMARK   58  A    between atoms: _131  and  _132
REMARK   59  A    between atoms: _136  and  _138
REMARK   60  A    between atoms: _138  and  _139
REMARK   61  A    between atoms: _138  and  _141
REMARK   62  A    between atoms: _141  and  _142
REMARK   63  A    between atoms: _142  and  _143
REMARK   64  A    between atoms: _143  and  _144
REMARK   65  A    between atoms: _144  and  _145
REMARK   66  A    between atoms: _149  and  _151
REMARK   67  A    between atoms: _151  and  _152
REMARK   68  A    between atoms: _151  and  _154
REMARK   69  A    between atoms: _154  and  _155
REMARK   70  A    between atoms: _160  and  _162
REMARK   71  A    between atoms: _162  and  _163
REMARK   72  A    between atoms: _162  and  _165
REMARK   73  A    between atoms: _165  and  _166
REMARK   74  A    between atoms: _171  and  _173
REMARK   75  A    between atoms: _173  and  _174
REMARK   76  A    between atoms: _177  and  _179
REMARK   77  A    between atoms: _179  and  _180
REMARK   78  A    between atoms: _179  and  _182
REMARK   79  A    between atoms: _182  and  _183
REMARK   80  A    between atoms: _188  and  _190
REMARK   81  A    between atoms: _190  and  _191
REMARK   82  A    between atoms: _194  and  _196
REMARK   83  A    between atoms: _196  and  _197
REMARK   84  A    between atoms: _200  and  _202
REMARK   85  A    between atoms: _202  and  _203
REMARK   86  A    between atoms: _202  and  _205
REMARK   87  A    between atoms: _205  and  _206
REMARK   88  A    between atoms: _211  and  _213
REMARK   89  A    between atoms: _213  and  _214
REMARK   90  A    between atoms: _213  and  _216
REMARK   91  A    between atoms: _216  and  _217
REMARK   92  A    between atoms: _220  and  _222
REMARK   93  A    between atoms: _222  and  _223
REMARK   94  A    between atoms: _225  and  _227
REMARK   95  A    between atoms: _227  and  _228
REMARK   96  A    between atoms: _227  and  _230
REMARK   97  A    between atoms: _230  and  _231
REMARK   98  A    between atoms: _231  and  _232
REMARK   99  A    between atoms: _235  and  _237
REMARK  100  A    between atoms: _237  and  _238
REMARK  101  A    between atoms: _237  and  _240
REMARK  102  A    between atoms: _240  and  _241
REMARK  103  A    between atoms: _244  and  _246
REMARK  104  A    between atoms: _246  and  _247
REMARK  105  A    between atoms: _246  and  _249
REMARK  106  A    between atoms: _249  and  _250
REMARK  107  A    between atoms: _252  and  _254
REMARK  108  A    between atoms: _254  and  _255
REMARK  109  A    between atoms: _254  and  _257
REMARK  110  A    between atoms: _257  and  _258
REMARK  111  A    between atoms: _261  and  _263
REMARK  112  A    between atoms: _263  and  _264
REMARK  113  A    between atoms: _263  and  _266
REMARK  114  A    between atoms: _266  and  _267
REMARK  115  A    between atoms: _267  and  _268
REMARK  116  A    between atoms: _270  and  _272
REMARK  117  A    between atoms: _272  and  _273
REMARK  118  A    between atoms: _276  and  _278
REMARK  119  A    between atoms: _278  and  _279
REMARK  120  A    between atoms: _282  and  _284
REMARK  121  A    between atoms: _284  and  _285
REMARK  122  A    between atoms: _284  and  _287
REMARK  123  A    between atoms: _287  and  _288
REMARK  124  A    between atoms: _291  and  _293
REMARK  125  A    between atoms: _293  and  _294
REMARK  126  A    between atoms: _297  and  _299
REMARK  127  A    between atoms: _299  and  _300
REMARK  128  A    between atoms: _303  and  _305
REMARK  129  A    between atoms: _305  and  _306
REMARK  130  A    between atoms: _308  and  _310
REMARK  131  A    between atoms: _310  and  _311
REMARK  132  A    between atoms: _310  and  _313
REMARK  133  A    between atoms: _313  and  _314
REMARK  134  A    between atoms: _319  and  _321
REMARK  135  A    between atoms: _321  and  _322
REMARK  136  A    between atoms: _321  and  _324
REMARK  137  A    between atoms: _324  and  _325
REMARK  138  A    between atoms: _328  and  _330
REMARK  139  A    between atoms: _330  and  _331
REMARK  140  A    between atoms: _330  and  _333
REMARK  141  A    between atoms: _336  and  _338
REMARK  142  A    between atoms: _338  and  _339
REMARK  143  A    between atoms: _338  and  _341
REMARK  144  A    between atoms: _341  and  _342
REMARK  145  A    between atoms: _342  and  _343
REMARK  146  A    between atoms: _343  and  _344
REMARK  147  A    between atoms: _344  and  _345
REMARK  148  A    between atoms: _349  and  _351
REMARK  149  A    between atoms: _351  and  _352
REMARK  150  A    between atoms: _351  and  _354
REMARK  151  A    between atoms: _354  and  _355
REMARK  152  A    between atoms: _357  and  _359
REMARK  153  A    between atoms: _359  and  _360
REMARK  154  A    between atoms: _359  and  _362
REMARK  155  A    between atoms: _362  and  _363
REMARK  156  A    between atoms: _368  and  _369
REMARK  157  A    between atoms: _371  and  _373
REMARK  158  A    between atoms: _373  and  _374
REMARK  159  A    between atoms: _373  and  _376
REMARK  160  A    between atoms: _376  and  _377
REMARK  161  A    between atoms: _377  and  _378
REMARK  162  A    between atoms: _381  and  _383
REMARK  163  A    between atoms: _383  and  _384
REMARK  164  A    between atoms: _383  and  _386
REMARK  165  A    between atoms: _386  and  _387
REMARK  166  A    between atoms: _392  and  _394
REMARK  167  A    between atoms: _394  and  _395
REMARK  168  A    between atoms: _394  and  _397
REMARK  169  A    between atoms: _397  and  _398
REMARK  170  A    between atoms: _401  and  _403
REMARK  171  A    between atoms: _403  and  _404
REMARK  172  A    between atoms: _403  and  _406
REMARK  173  A    between atoms: _406  and  _407
REMARK  174  A    between atoms: _407  and  _408
REMARK  175  A    between atoms: _408  and  _409
REMARK  176  A    between atoms: _418  and  _420
REMARK  177  A    between atoms: _420  and  _421
REMARK  178  A    between atoms: _423  and  _425
REMARK  179  A    between atoms: _425  and  _426
REMARK  180  A    between atoms: _425  and  _428
REMARK  181  A    between atoms: _428  and  _429
REMARK  182  A    between atoms: _429  and  _430
REMARK  183  A    between atoms: _432  and  _434
REMARK  184  A    between atoms: _434  and  _435
REMARK  185  A    between atoms: _434  and  _437
REMARK  186  A    between atoms: _437  and  _438
REMARK  187  A    between atoms: _438  and  _439
REMARK  188  A    between atoms: _441  and  _443
REMARK  189  A    between atoms: _443  and  _444
REMARK  190  A    between atoms: _443  and  _446
REMARK  191  A    between atoms: _446  and  _447
REMARK  192  A    between atoms: _452  and  _454
REMARK  193  A    between atoms: _454  and  _455
REMARK  194  A    between atoms: _454  and  _457
REMARK  195  A    between atoms: _457  and  _458
REMARK  196  A    between atoms: _460  and  _462
REMARK  197  A    between atoms: _462  and  _463
REMARK  198  A    between atoms: _466  and  _468
REMARK  199  A    between atoms: _468  and  _469
REMARK  200  A    between atoms: _468  and  _471
REMARK  201  A    between atoms: _474  and  _476
REMARK  202  A    between atoms: _476  and  _477
REMARK  203  A    between atoms: _476  and  _479
REMARK  204  A    between atoms: _479  and  _480
REMARK  205  A    between atoms: _482  and  _484
REMARK  206  A    between atoms: _484  and  _485
REMARK  207  A    between atoms: _487  and  _489
REMARK  208  A    between atoms: _489  and  _490
REMARK  209  A    between atoms: _489  and  _492
REMARK  210  A    between atoms: _492  and  _493
REMARK  211  A    between atoms: _498  and  _500
REMARK  212  A    between atoms: _500  and  _501
REMARK  213  A    between atoms: _500  and  _503
REMARK  214  A    between atoms: _503  and  _504
REMARK  215  A    between atoms: _509  and  _510
REMARK  216  A    between atoms: _512  and  _514
REMARK  217  A    between atoms: _514  and  _515
REMARK  218  A    between atoms: _514  and  _517
REMARK  219  A    between atoms: _519  and  _521
REMARK  220  A    between atoms: _521  and  _522
REMARK  221  A    between atoms: _521  and  _524
REMARK  222  A    between atoms: _524  and  _525
REMARK  223  A    between atoms: _528  and  _530
REMARK  224  A    between atoms: _530  and  _531
REMARK  225  A    between atoms: _530  and  _533
REMARK  226  A    between atoms: _533  and  _534
REMARK  227  A    between atoms: _537  and  _539
REMARK  228  A    between atoms: _539  and  _540
REMARK  229  A    between atoms: _539  and  _542
REMARK  230  A    between atoms: _542  and  _543
REMARK  231  A    between atoms: _543  and  _544
REMARK  232  A    between atoms: _544  and  _545
REMARK  233  A    between atoms: _545  and  _546
REMARK  234  A    between atoms: _550  and  _552
REMARK  235  A    between atoms: _552  and  _553
REMARK  236  A    between atoms: _552  and  _555
REMARK  237  A    between atoms: _555  and  _556
REMARK  238  A    between atoms: _556  and  _557
REMARK  239  A    between atoms: _557  and  _558
REMARK  240  A    between atoms: _558  and  _559
REMARK  241  A    between atoms: _563  and  _565
REMARK  242  A    between atoms: _565  and  _566
REMARK  243  A    between atoms: _565  and  _568
REMARK  244  A    between atoms: _568  and  _569
REMARK  245  A    between atoms: _569  and  _570
REMARK  246  A    between atoms: _570  and  _571
REMARK  247  A    between atoms: _580  and  _582
REMARK  248  A    between atoms: _582  and  _583
REMARK  249  A    between atoms: _582  and  _585
REMARK  250  A    between atoms: _585  and  _586
REMARK  251  A    between atoms: _589  and  _591
REMARK  252  A    between atoms: _591  and  _592
REMARK  253  A    between atoms: _595  and  _597
REMARK  254  A    between atoms: _597  and  _598
REMARK  255  A    between atoms: _597  and  _600
REMARK  256  A    between atoms: _600  and  _601
REMARK  257  A    between atoms: _601  and  _602
REMARK                            x       y       z     vdW  Elec       q    Type
REMARK                         _______ _______ _______ _____ _____    ______ ____
ROOT
ATOM      1  O   HOH     1      11.226  15.197  39.293  0.00  0.00    +0.000 OA
ENDROOT
TORSDOF 0
REMARK  Name = ../refined-set-2016/3cd5/3cd5_pocket.pdb
REMARK  257 active torsions:
REMARK  status: ('A' for Active; 'I' for Inactive)
REMARK    1  A    between atoms: _1  and  _3
REMARK    2  A    between atoms: _3  and  _4
REMARK    3  A    between atoms: _3  and  _6
REMARK    4  A    between atoms: _6  and  _7
REMARK    5  A    between atoms: _7  and  _8
REMARK    6  A    between atoms: _11  and  _13
REMARK    7  A    between atoms: _13  and  _14
REMARK    8  A    between atoms: _16  and  _18
REMARK    9  A    between atoms: _18  and  _19
REMARK   10  A    between atoms: _18  and  _21
REMARK   11  A    between atoms: _23  and  _25
REMARK   12  A    between atoms: _25  and  _26
REMARK   13  A    between atoms: _25  and  _28
REMARK   14  A    between atoms: _28  and  _29
REMARK   15  A    between atoms: _32  and  _34
REMARK   16  A    between atoms: _34  and  _35
REMARK   17  A    between atoms: _34  and  _37
REMARK   18  A    between atoms: _40  and  _42
REMARK   19  A    between atoms: _42  and  _43
REMARK   20  A    between atoms: _46  and  _48
REMARK   21  A    between atoms: _48  and  _49
REMARK   22  A    between atoms: _48  and  _51
REMARK   23  A    between atoms: _51  and  _52
REMARK   24  A    between atoms: _54  and  _56
REMARK   25  A    between atoms: _56  and  _57
REMARK   26  A    between atoms: _56  and  _59
REMARK   27  A    between atoms: _59  and  _60
REMARK   28  A    between atoms: _63  and  _65
REMARK   29  A    between atoms: _65  and  _66
REMARK   30  A    between atoms: _65  and  _68
REMARK   31  A    between atoms: _68  and  _69
REMARK   32  A    between atoms: _74  and  _76
REMARK   33  A    between atoms: _76  and  _77
REMARK   34  A    between atoms: _76  and  _79
REMARK   35  A    between atoms: _79  and  _80
REMARK   36  A    between atoms: _80  and  _81
REMARK   37  A    between atoms: _81  and  _82
REMARK   38  A    between atoms: _91  and  _93
REMARK   39  A    between atoms: _93  and  _94
REMARK   40  A    between atoms: _96  and  _98
REMARK   41  A    between atoms: _98  and  _99
REMARK   42  A    between atoms: _98  and  _101
REMARK   43  A    between atoms: _101  and  _102
REMARK   44  A    between atoms: _102  and  _103
REMARK   45  A    between atoms: _106  and  _108
REMARK   46  A    between atoms: _108  and  _109
REMARK   47  A    between atoms: _108  and  _111
REMARK   48  A    between atoms: _114  and  _116
REMARK   49  A    between atoms: _116  and  _117
REMARK   50  A    between atoms: _116  and  _119
REMARK   51  A    between atoms: _119  and  _120
REMARK   52  A    between atoms: _123  and  _125
REMARK   53  A    between atoms: _125  and  _126
REMARK   54  A    between atoms: _125  and  _128
REMARK   55  A    between atoms: _128  and  _129
REMARK   56  A    between atoms: _129  and  _130
REMARK   57  A    between atoms: _130  and  _131
REMARK   58  A    between atoms: _131  and  _132
REMARK   59  A    between atoms: _136  and  _138
REMARK   60  A    between atoms: _138  and  _139
REMARK   61  A    between atoms: _138  and  _141
REMARK   62  A    between atoms: _141  and  _142
REMARK   63  A    between atoms: _142  and  _143
REMARK   64  A    between atoms: _143  and  _144
REMARK   65  A    between atoms: _144  and  _145
REMARK   66  A    between atoms: _149  and  _151
REMARK   67  A    between atoms: _151  and  _152
REMARK   68  A    between atoms: _151  and  _154
REMARK   69  A    between atoms: _154  and  _155
REMARK   70  A    between atoms: _160  and  _162
REMARK   71  A    between atoms: _162  and  _163
REMARK   72  A    between atoms: _162  and  _165
REMARK   73  A    between atoms: _165  and  _166
REMARK   74  A    between atoms: _171  and  _173
REMARK   75  A    between atoms: _173  and  _174
REMARK   76  A    between atoms: _177  and  _179
REMARK   77  A    between atoms: _179  and  _180
REMARK   78  A    between atoms: _179  and  _182
REMARK   79  A    between atoms: _182  and  _183
REMARK   80  A    between atoms: _188  and  _190
REMARK   81  A    between atoms: _190  and  _191
REMARK   82  A    between atoms: _194  and  _196
REMARK   83  A    between atoms: _196  and  _197
REMARK   84  A    between atoms: _200  and  _202
REMARK   85  A    between atoms: _202  and  _203
REMARK   86  A    between atoms: _202  and  _205
REMARK   87  A    between atoms: _205  and  _206
REMARK   88  A    between atoms: _211  and  _213
REMARK   89  A    between atoms: _213  and  _214
REMARK   90  A    between atoms: _213  and  _216
REMARK   91  A    between atoms: _216  and  _217
REMARK   92  A    between atoms: _220  and  _222
REMARK   93  A    between atoms: _222  and  _223
REMARK   94  A    between atoms: _225  and  _227
REMARK   95  A    between atoms: _227  and  _228
REMARK   96  A    between atoms: _227  and  _230
REMARK   97  A    between atoms: _230  and  _231
REMARK   98  A    between atoms: _231  and  _232
REMARK   99  A    between atoms: _235  and  _237
REMARK  100  A    between atoms: _237  and  _238
REMARK  101  A    between atoms: _237  and  _240
REMARK  102  A    between atoms: _240  and  _241
REMARK  103  A    between atoms: _244  and  _246
REMARK  104  A    between atoms: _246  and  _247
REMARK  105  A    between atoms: _246  and  _249
REMARK  106  A    between atoms: _249  and  _250
REMARK  107  A    between atoms: _252  and  _254
REMARK  108  A    between atoms: _254  and  _255
REMARK  109  A    between atoms: _254  and  _257
REMARK  110  A    between atoms: _257  and  _258
REMARK  111  A    between atoms: _261  and  _263
REMARK  112  A    between atoms: _263  and  _264
REMARK  113  A    between atoms: _263  and  _266
REMARK  114  A    between atoms: _266  and  _267
REMARK  115  A    between atoms: _267  and  _268
REMARK  116  A    between atoms: _270  and  _272
REMARK  117  A    between atoms: _272  and  _273
REMARK  118  A    between atoms: _276  and  _278
REMARK  119  A    between atoms: _278  and  _279
REMARK  120  A    between atoms: _282  and  _284
REMARK  121  A    between atoms: _284  and  _285
REMARK  122  A    between atoms: _284  and  _287
REMARK  123  A    between atoms: _287  and  _288
REMARK  124  A    between atoms: _291  and  _293
REMARK  125  A    between atoms: _293  and  _294
REMARK  126  A    between atoms: _297  and  _299
REMARK  127  A    between atoms: _299  and  _300
REMARK  128  A    between atoms: _303  and  _305
REMARK  129  A    between atoms: _305  and  _306
REMARK  130  A    between atoms: _308  and  _310
REMARK  131  A    between atoms: _310  and  _311
REMARK  132  A    between atoms: _310  and  _313
REMARK  133  A    between atoms: _313  and  _314
REMARK  134  A    between atoms: _319  and  _321
REMARK  135  A    between atoms: _321  and  _322
REMARK  136  A    between atoms: _321  and  _324
REMARK  137  A    between atoms: _324  and  _325
REMARK  138  A    between atoms: _328  and  _330
REMARK  139  A    between atoms: _330  and  _331
REMARK  140  A    between atoms: _330  and  _333
REMARK  141  A    between atoms: _336  and  _338
REMARK  142  A    between atoms: _338  and  _339
REMARK  143  A    between atoms: _338  and  _341
REMARK  144  A    between atoms: _341  and  _342
REMARK  145  A    between atoms: _342  and  _343
REMARK  146  A    between atoms: _343  and  _344
REMARK  147  A    between atoms: _344  and  _345
REMARK  148  A    between atoms: _349  and  _351
REMARK  149  A    between atoms: _351  and  _352
REMARK  150  A    between atoms: _351  and  _354
REMARK  151  A    between atoms: _354  and  _355
REMARK  152  A    between atoms: _357  and  _359
REMARK  153  A    between atoms: _359  and  _360
REMARK  154  A    between atoms: _359  and  _362
REMARK  155  A    between atoms: _362  and  _363
REMARK  156  A    between atoms: _368  and  _369
REMARK  157  A    between atoms: _371  and  _373
REMARK  158  A    between atoms: _373  and  _374
REMARK  159  A    between atoms: _373  and  _376
REMARK  160  A    between atoms: _376  and  _377
REMARK  161  A    between atoms: _377  and  _378
REMARK  162  A    between atoms: _381  and  _383
REMARK  163  A    between atoms: _383  and  _384
REMARK  164  A    between atoms: _383  and  _386
REMARK  165  A    between atoms: _386  and  _387
REMARK  166  A    between atoms: _392  and  _394
REMARK  167  A    between atoms: _394  and  _395
REMARK  168  A    between atoms: _394  and  _397
REMARK  169  A    between atoms: _397  and  _398
REMARK  170  A    between atoms: _401  and  _403
REMARK  171  A    between atoms: _403  and  _404
REMARK  172  A    between atoms: _403  and  _406
REMARK  173  A    between atoms: _406  and  _407
REMARK  174  A    between atoms: _407  and  _408
REMARK  175  A    between atoms: _408  and  _409
REMARK  176  A    between atoms: _418  and  _420
REMARK  177  A    between atoms: _420  and  _421
REMARK  178  A    between atoms: _423  and  _425
REMARK  179  A    between atoms: _425  and  _426
REMARK  180  A    between atoms: _425  and  _428
REMARK  181  A    between atoms: _428  and  _429
REMARK  182  A    between atoms: _429  and  _430
REMARK  183  A    between atoms: _432  and  _434
REMARK  184  A    between atoms: _434  and  _435
REMARK  185  A    between atoms: _434  and  _437
REMARK  186  A    between atoms: _437  and  _438
REMARK  187  A    between atoms: _438  and  _439
REMARK  188  A    between atoms: _441  and  _443
REMARK  189  A    between atoms: _443  and  _444
REMARK  190  A    between atoms: _443  and  _446
REMARK  191  A    between atoms: _446  and  _447
REMARK  192  A    between atoms: _452  and  _454
REMARK  193  A    between atoms: _454  and  _455
REMARK  194  A    between atoms: _454  and  _457
REMARK  195  A    between atoms: _457  and  _458
REMARK  196  A    between atoms: _460  and  _462
REMARK  197  A    between atoms: _462  and  _463
REMARK  198  A    between atoms: _466  and  _468
REMARK  199  A    between atoms: _468  and  _469
REMARK  200  A    between atoms: _468  and  _471
REMARK  201  A    between atoms: _474  and  _476
REMARK  202  A    between atoms: _476  and  _477
REMARK  203  A    between atoms: _476  and  _479
REMARK  204  A    between atoms: _479  and  _480
REMARK  205  A    between atoms: _482  and  _484
REMARK  206  A    between atoms: _484  and  _485
REMARK  207  A    between atoms: _487  and  _489
REMARK  208  A    between atoms: _489  and  _490
REMARK  209  A    between atoms: _489  and  _492
REMARK  210  A    between atoms: _492  and  _493
REMARK  211  A    between atoms: _498  and  _500
REMARK  212  A    between atoms: _500  and  _501
REMARK  213  A    between atoms: _500  and  _503
REMARK  214  A    between atoms: _503  and  _504
REMARK  215  A    between atoms: _509  and  _510
REMARK  216  A    between atoms: _512  and  _514
REMARK  217  A    between atoms: _514  and  _515
REMARK  218  A    between atoms: _514  and  _517
REMARK  219  A    between atoms: _519  and  _521
REMARK  220  A    between atoms: _521  and  _522
REMARK  221  A    between atoms: _521  and  _524
REMARK  222  A    between atoms: _524  and  _525
REMARK  223  A    between atoms: _528  and  _530
REMARK  224  A    between atoms: _530  and  _531
REMARK  225  A    between atoms: _530  and  _533
REMARK  226  A    between atoms: _533  and  _534
REMARK  227  A    between atoms: _537  and  _539
REMARK  228  A    between atoms: _539  and  _540
REMARK  229  A    between atoms: _539  and  _542
REMARK  230  A    between atoms: _542  and  _543
REMARK  231  A    between atoms: _543  and  _544
REMARK  232  A    between atoms: _544  and  _545
REMARK  233  A    between atoms: _545  and  _546
REMARK  234  A    between atoms: _550  and  _552
REMARK  235  A    between atoms: _552  and  _553
REMARK  236  A    between atoms: _552  and  _555
REMARK  237  A    between atoms: _555  and  _556
REMARK  238  A    between atoms: _556  and  _557
REMARK  239  A    between atoms: _557  and  _558
REMARK  240  A    between atoms: _558  and  _559
REMARK  241  A    between atoms: _563  and  _565
REMARK  242  A    between atoms: _565  and  _566
REMARK  243  A    between atoms: _565  and  _568
REMARK  244  A    between atoms: _568  and  _569
REMARK  245  A    between atoms: _569  and  _570
REMARK  246  A    between atoms: _570  and  _571
REMARK  247  A    between atoms: _580  and  _582
REMARK  248  A    between atoms: _582  and  _583
REMARK  249  A    between atoms: _582  and  _585
REMARK  250  A    between atoms: _585  and  _586
REMARK  251  A    between atoms: _589  and  _591
REMARK  252  A    between atoms: _591  and  _592
REMARK  253  A    between atoms: _595  and  _597
REMARK  254  A    between atoms: _597  and  _598
REMARK  255  A    between atoms: _597  and  _600
REMARK  256  A    between atoms: _600  and  _601
REMARK  257  A    between atoms: _601  and  _602
REMARK                            x       y       z     vdW  Elec       q    Type
REMARK                         _______ _______ _______ _____ _____    ______ ____
ROOT
ATOM      1  O   HOH     1      19.460  10.539  36.782  0.00  0.00    +0.000 OA
ENDROOT
TORSDOF 0
REMARK  Name = ../refined-set-2016/3cd5/3cd5_pocket.pdb
REMARK  257 active torsions:
REMARK  status: ('A' for Active; 'I' for Inactive)
REMARK    1  A    between atoms: _1  and  _3
REMARK    2  A    between atoms: _3  and  _4
REMARK    3  A    between atoms: _3  and  _6
REMARK    4  A    between atoms: _6  and  _7
REMARK    5  A    between atoms: _7  and  _8
REMARK    6  A    between atoms: _11  and  _13
REMARK    7  A    between atoms: _13  and  _14
REMARK    8  A    between atoms: _16  and  _18
REMARK    9  A    between atoms: _18  and  _19
REMARK   10  A    between atoms: _18  and  _21
REMARK   11  A    between atoms: _23  and  _25
REMARK   12  A    between atoms: _25  and  _26
REMARK   13  A    between atoms: _25  and  _28
REMARK   14  A    between atoms: _28  and  _29
REMARK   15  A    between atoms: _32  and  _34
REMARK   16  A    between atoms: _34  and  _35
REMARK   17  A    between atoms: _34  and  _37
REMARK   18  A    between atoms: _40  and  _42
REMARK   19  A    between atoms: _42  and  _43
REMARK   20  A    between atoms: _46  and  _48
REMARK   21  A    between atoms: _48  and  _49
REMARK   22  A    between atoms: _48  and  _51
REMARK   23  A    between atoms: _51  and  _52
REMARK   24  A    between atoms: _54  and  _56
REMARK   25  A    between atoms: _56  and  _57
REMARK   26  A    between atoms: _56  and  _59
REMARK   27  A    between atoms: _59  and  _60
REMARK   28  A    between atoms: _63  and  _65
REMARK   29  A    between atoms: _65  and  _66
REMARK   30  A    between atoms: _65  and  _68
REMARK   31  A    between atoms: _68  and  _69
REMARK   32  A    between atoms: _74  and  _76
REMARK   33  A    between atoms: _76  and  _77
REMARK   34  A    between atoms: _76  and  _79
REMARK   35  A    between atoms: _79  and  _80
REMARK   36  A    between atoms: _80  and  _81
REMARK   37  A    between atoms: _81  and  _82
REMARK   38  A    between atoms: _91  and  _93
REMARK   39  A    between atoms: _93  and  _94
REMARK   40  A    between atoms: _96  and  _98
REMARK   41  A    between atoms: _98  and  _99
REMARK   42  A    between atoms: _98  and  _101
REMARK   43  A    between atoms: _101  and  _102
REMARK   44  A    between atoms: _102  and  _103
REMARK   45  A    between atoms: _106  and  _108
REMARK   46  A    between atoms: _108  and  _109
REMARK   47  A    between atoms: _108  and  _111
REMARK   48  A    between atoms: _114  and  _116
REMARK   49  A    between atoms: _116  and  _117
REMARK   50  A    between atoms: _116  and  _119
REMARK   51  A    between atoms: _119  and  _120
REMARK   52  A    between atoms: _123  and  _125
REMARK   53  A    between atoms: _125  and  _126
REMARK   54  A    between atoms: _125  and  _128
REMARK   55  A    between atoms: _128  and  _129
REMARK   56  A    between atoms: _129  and  _130
REMARK   57  A    between atoms: _130  and  _131
REMARK   58  A    between atoms: _131  and  _132
REMARK   59  A    between atoms: _136  and  _138
REMARK   60  A    between atoms: _138  and  _139
REMARK   61  A    between atoms: _138  and  _141
REMARK   62  A    between atoms: _141  and  _142
REMARK   63  A    between atoms: _142  and  _143
REMARK   64  A    between atoms: _143  and  _144
REMARK   65  A    between atoms: _144  and  _145
REMARK   66  A    between atoms: _149  and  _151
REMARK   67  A    between atoms: _151  and  _152
REMARK   68  A    between atoms: _151  and  _154
REMARK   69  A    between atoms: _154  and  _155
REMARK   70  A    between atoms: _160  and  _162
REMARK   71  A    between atoms: _162  and  _163
REMARK   72  A    between atoms: _162  and  _165
REMARK   73  A    between atoms: _165  and  _166
REMARK   74  A    between atoms: _171  and  _173
REMARK   75  A    between atoms: _173  and  _174
REMARK   76  A    between atoms: _177  and  _179
REMARK   77  A    between atoms: _179  and  _180
REMARK   78  A    between atoms: _179  and  _182
REMARK   79  A    between atoms: _182  and  _183
REMARK   80  A    between atoms: _188  and  _190
REMARK   81  A    between atoms: _190  and  _191
REMARK   82  A    between atoms: _194  and  _196
REMARK   83  A    between atoms: _196  and  _197
REMARK   84  A    between atoms: _200  and  _202
REMARK   85  A    between atoms: _202  and  _203
REMARK   86  A    between atoms: _202  and  _205
REMARK   87  A    between atoms: _205  and  _206
REMARK   88  A    between atoms: _211  and  _213
REMARK   89  A    between atoms: _213  and  _214
REMARK   90  A    between atoms: _213  and  _216
REMARK   91  A    between atoms: _216  and  _217
REMARK   92  A    between atoms: _220  and  _222
REMARK   93  A    between atoms: _222  and  _223
REMARK   94  A    between atoms: _225  and  _227
REMARK   95  A    between atoms: _227  and  _228
REMARK   96  A    between atoms: _227  and  _230
REMARK   97  A    between atoms: _230  and  _231
REMARK   98  A    between atoms: _231  and  _232
REMARK   99  A    between atoms: _235  and  _237
REMARK  100  A    between atoms: _237  and  _238
REMARK  101  A    between atoms: _237  and  _240
REMARK  102  A    between atoms: _240  and  _241
REMARK  103  A    between atoms: _244  and  _246
REMARK  104  A    between atoms: _246  and  _247
REMARK  105  A    between atoms: _246  and  _249
REMARK  106  A    between atoms: _249  and  _250
REMARK  107  A    between atoms: _252  and  _254
REMARK  108  A    between atoms: _254  and  _255
REMARK  109  A    between atoms: _254  and  _257
REMARK  110  A    between atoms: _257  and  _258
REMARK  111  A    between atoms: _261  and  _263
REMARK  112  A    between atoms: _263  and  _264
REMARK  113  A    between atoms: _263  and  _266
REMARK  114  A    between atoms: _266  and  _267
REMARK  115  A    between atoms: _267  and  _268
REMARK  116  A    between atoms: _270  and  _272
REMARK  117  A    between atoms: _272  and  _273
REMARK  118  A    between atoms: _276  and  _278
REMARK  119  A    between atoms: _278  and  _279
REMARK  120  A    between atoms: _282  and  _284
REMARK  121  A    between atoms: _284  and  _285
REMARK  122  A    between atoms: _284  and  _287
REMARK  123  A    between atoms: _287  and  _288
REMARK  124  A    between atoms: _291  and  _293
REMARK  125  A    between atoms: _293  and  _294
REMARK  126  A    between atoms: _297  and  _299
REMARK  127  A    between atoms: _299  and  _300
REMARK  128  A    between atoms: _303  and  _305
REMARK  129  A    between atoms: _305  and  _306
REMARK  130  A    between atoms: _308  and  _310
REMARK  131  A    between atoms: _310  and  _311
REMARK  132  A    between atoms: _310  and  _313
REMARK  133  A    between atoms: _313  and  _314
REMARK  134  A    between atoms: _319  and  _321
REMARK  135  A    between atoms: _321  and  _322
REMARK  136  A    between atoms: _321  and  _324
REMARK  137  A    between atoms: _324  and  _325
REMARK  138  A    between atoms: _328  and  _330
REMARK  139  A    between atoms: _330  and  _331
REMARK  140  A    between atoms: _330  and  _333
REMARK  141  A    between atoms: _336  and  _338
REMARK  142  A    between atoms: _338  and  _339
REMARK  143  A    between atoms: _338  and  _341
REMARK  144  A    between atoms: _341  and  _342
REMARK  145  A    between atoms: _342  and  _343
REMARK  146  A    between atoms: _343  and  _344
REMARK  147  A    between atoms: _344  and  _345
REMARK  148  A    between atoms: _349  and  _351
REMARK  149  A    between atoms: _351  and  _352
REMARK  150  A    between atoms: _351  and  _354
REMARK  151  A    between atoms: _354  and  _355
REMARK  152  A    between atoms: _357  and  _359
REMARK  153  A    between atoms: _359  and  _360
REMARK  154  A    between atoms: _359  and  _362
REMARK  155  A    between atoms: _362  and  _363
REMARK  156  A    between atoms: _368  and  _369
REMARK  157  A    between atoms: _371  and  _373
REMARK  158  A    between atoms: _373  and  _374
REMARK  159  A    between atoms: _373  and  _376
REMARK  160  A    between atoms: _376  and  _377
REMARK  161  A    between atoms: _377  and  _378
REMARK  162  A    between atoms: _381  and  _383
REMARK  163  A    between atoms: _383  and  _384
REMARK  164  A    between atoms: _383  and  _386
REMARK  165  A    between atoms: _386  and  _387
REMARK  166  A    between atoms: _392  and  _394
REMARK  167  A    between atoms: _394  and  _395
REMARK  168  A    between atoms: _394  and  _397
REMARK  169  A    between atoms: _397  and  _398
REMARK  170  A    between atoms: _401  and  _403
REMARK  171  A    between atoms: _403  and  _404
REMARK  172  A    between atoms: _403  and  _406
REMARK  173  A    between atoms: _406  and  _407
REMARK  174  A    between atoms: _407  and  _408
REMARK  175  A    between atoms: _408  and  _409
REMARK  176  A    between atoms: _418  and  _420
REMARK  177  A    between atoms: _420  and  _421
REMARK  178  A    between atoms: _423  and  _425
REMARK  179  A    between atoms: _425  and  _426
REMARK  180  A    between atoms: _425  and  _428
REMARK  181  A    between atoms: _428  and  _429
REMARK  182  A    between atoms: _429  and  _430
REMARK  183  A    between atoms: _432  and  _434
REMARK  184  A    between atoms: _434  and  _435
REMARK  185  A    between atoms: _434  and  _437
REMARK  186  A    between atoms: _437  and  _438
REMARK  187  A    between atoms: _438  and  _439
REMARK  188  A    between atoms: _441  and  _443
REMARK  189  A    between atoms: _443  and  _444
REMARK  190  A    between atoms: _443  and  _446
REMARK  191  A    between atoms: _446  and  _447
REMARK  192  A    between atoms: _452  and  _454
REMARK  193  A    between atoms: _454  and  _455
REMARK  194  A    between atoms: _454  and  _457
REMARK  195  A    between atoms: _457  and  _458
REMARK  196  A    between atoms: _460  and  _462
REMARK  197  A    between atoms: _462  and  _463
REMARK  198  A    between atoms: _466  and  _468
REMARK  199  A    between atoms: _468  and  _469
REMARK  200  A    between atoms: _468  and  _471
REMARK  201  A    between atoms: _474  and  _476
REMARK  202  A    between atoms: _476  and  _477
REMARK  203  A    between atoms: _476  and  _479
REMARK  204  A    between atoms: _479  and  _480
REMARK  205  A    between atoms: _482  and  _484
REMARK  206  A    between atoms: _484  and  _485
REMARK  207  A    between atoms: _487  and  _489
REMARK  208  A    between atoms: _489  and  _490
REMARK  209  A    between atoms: _489  and  _492
REMARK  210  A    between atoms: _492  and  _493
REMARK  211  A    between atoms: _498  and  _500
REMARK  212  A    between atoms: _500  and  _501
REMARK  213  A    between atoms: _500  and  _503
REMARK  214  A    between atoms: _503  and  _504
REMARK  215  A    between atoms: _509  and  _510
REMARK  216  A    between atoms: _512  and  _514
REMARK  217  A    between atoms: _514  and  _515
REMARK  218  A    between atoms: _514  and  _517
REMARK  219  A    between atoms: _519  and  _521
REMARK  220  A    between atoms: _521  and  _522
REMARK  221  A    between atoms: _521  and  _524
REMARK  222  A    between atoms: _524  and  _525
REMARK  223  A    between atoms: _528  and  _530
REMARK  224  A    between atoms: _530  and  _531
REMARK  225  A    between atoms: _530  and  _533
REMARK  226  A    between atoms: _533  and  _534
REMARK  227  A    between atoms: _537  and  _539
REMARK  228  A    between atoms: _539  and  _540
REMARK  229  A    between atoms: _539  and  _542
REMARK  230  A    between atoms: _542  and  _543
REMARK  231  A    between atoms: _543  and  _544
REMARK  232  A    between atoms: _544  and  _545
REMARK  233  A    between atoms: _545  and  _546
REMARK  234  A    between atoms: _550  and  _552
REMARK  235  A    between atoms: _552  and  _553
REMARK  236  A    between atoms: _552  and  _555
REMARK  237  A    between atoms: _555  and  _556
REMARK  238  A    between atoms: _556  and  _557
REMARK  239  A    between atoms: _557  and  _558
REMARK  240  A    between atoms: _558  and  _559
REMARK  241  A    between atoms: _563  and  _565
REMARK  242  A    between atoms: _565  and  _566
REMARK  243  A    between atoms: _565  and  _568
REMARK  244  A    between atoms: _568  and  _569
REMARK  245  A    between atoms: _569  and  _570
REMARK  246  A    between atoms: _570  and  _571
REMARK  247  A    between atoms: _580  and  _582
REMARK  248  A    between atoms: _582  and  _583
REMARK  249  A    between atoms: _582  and  _585
REMARK  250  A    between atoms: _585  and  _586
REMARK  251  A    between atoms: _589  and  _591
REMARK  252  A    between atoms: _591  and  _592
REMARK  253  A    between atoms: _595  and  _597
REMARK  254  A    between atoms: _597  and  _598
REMARK  255  A    between atoms: _597  and  _600
REMARK  256  A    between atoms: _600  and  _601
REMARK  257  A    between atoms: _601  and  _602
REMARK                            x       y       z     vdW  Elec       q    Type
REMARK                         _______ _______ _______ _____ _____    ______ ____
ROOT
ATOM      1  O   HOH     1      11.556   0.733  37.070  0.00  0.00    +0.000 OA
ENDROOT
TORSDOF 0
REMARK  Name = ../refined-set-2016/3cd5/3cd5_pocket.pdb
REMARK  257 active torsions:
REMARK  status: ('A' for Active; 'I' for Inactive)
REMARK    1  A    between atoms: _1  and  _3
REMARK    2  A    between atoms: _3  and  _4
REMARK    3  A    between atoms: _3  and  _6
REMARK    4  A    between atoms: _6  and  _7
REMARK    5  A    between atoms: _7  and  _8
REMARK    6  A    between atoms: _11  and  _13
REMARK    7  A    between atoms: _13  and  _14
REMARK    8  A    between atoms: _16  and  _18
REMARK    9  A    between atoms: _18  and  _19
REMARK   10  A    between atoms: _18  and  _21
REMARK   11  A    between atoms: _23  and  _25
REMARK   12  A    between atoms: _25  and  _26
REMARK   13  A    between atoms: _25  and  _28
REMARK   14  A    between atoms: _28  and  _29
REMARK   15  A    between atoms: _32  and  _34
REMARK   16  A    between atoms: _34  and  _35
REMARK   17  A    between atoms: _34  and  _37
REMARK   18  A    between atoms: _40  and  _42
REMARK   19  A    between atoms: _42  and  _43
REMARK   20  A    between atoms: _46  and  _48
REMARK   21  A    between atoms: _48  and  _49
REMARK   22  A    between atoms: _48  and  _51
REMARK   23  A    between atoms: _51  and  _52
REMARK   24  A    between atoms: _54  and  _56
REMARK   25  A    between atoms: _56  and  _57
REMARK   26  A    between atoms: _56  and  _59
REMARK   27  A    between atoms: _59  and  _60
REMARK   28  A    between atoms: _63  and  _65
REMARK   29  A    between atoms: _65  and  _66
REMARK   30  A    between atoms: _65  and  _68
REMARK   31  A    between atoms: _68  and  _69
REMARK   32  A    between atoms: _74  and  _76
REMARK   33  A    between atoms: _76  and  _77
REMARK   34  A    between atoms: _76  and  _79
REMARK   35  A    between atoms: _79  and  _80
REMARK   36  A    between atoms: _80  and  _81
REMARK   37  A    between atoms: _81  and  _82
REMARK   38  A    between atoms: _91  and  _93
REMARK   39  A    between atoms: _93  and  _94
REMARK   40  A    between atoms: _96  and  _98
REMARK   41  A    between atoms: _98  and  _99
REMARK   42  A    between atoms: _98  and  _101
REMARK   43  A    between atoms: _101  and  _102
REMARK   44  A    between atoms: _102  and  _103
REMARK   45  A    between atoms: _106  and  _108
REMARK   46  A    between atoms: _108  and  _109
REMARK   47  A    between atoms: _108  and  _111
REMARK   48  A    between atoms: _114  and  _116
REMARK   49  A    between atoms: _116  and  _117
REMARK   50  A    between atoms: _116  and  _119
REMARK   51  A    between atoms: _119  and  _120
REMARK   52  A    between atoms: _123  and  _125
REMARK   53  A    between atoms: _125  and  _126
REMARK   54  A    between atoms: _125  and  _128
REMARK   55  A    between atoms: _128  and  _129
REMARK   56  A    between atoms: _129  and  _130
REMARK   57  A    between atoms: _130  and  _131
REMARK   58  A    between atoms: _131  and  _132
REMARK   59  A    between atoms: _136  and  _138
REMARK   60  A    between atoms: _138  and  _139
REMARK   61  A    between atoms: _138  and  _141
REMARK   62  A    between atoms: _141  and  _142
REMARK   63  A    between atoms: _142  and  _143
REMARK   64  A    between atoms: _143  and  _144
REMARK   65  A    between atoms: _144  and  _145
REMARK   66  A    between atoms: _149  and  _151
REMARK   67  A    between atoms: _151  and  _152
REMARK   68  A    between atoms: _151  and  _154
REMARK   69  A    between atoms: _154  and  _155
REMARK   70  A    between atoms: _160  and  _162
REMARK   71  A    between atoms: _162  and  _163
REMARK   72  A    between atoms: _162  and  _165
REMARK   73  A    between atoms: _165  and  _166
REMARK   74  A    between atoms: _171  and  _173
REMARK   75  A    between atoms: _173  and  _174
REMARK   76  A    between atoms: _177  and  _179
REMARK   77  A    between atoms: _179  and  _180
REMARK   78  A    between atoms: _179  and  _182
REMARK   79  A    between atoms: _182  and  _183
REMARK   80  A    between atoms: _188  and  _190
REMARK   81  A    between atoms: _190  and  _191
REMARK   82  A    between atoms: _194  and  _196
REMARK   83  A    between atoms: _196  and  _197
REMARK   84  A    between atoms: _200  and  _202
REMARK   85  A    between atoms: _202  and  _203
REMARK   86  A    between atoms: _202  and  _205
REMARK   87  A    between atoms: _205  and  _206
REMARK   88  A    between atoms: _211  and  _213
REMARK   89  A    between atoms: _213  and  _214
REMARK   90  A    between atoms: _213  and  _216
REMARK   91  A    between atoms: _216  and  _217
REMARK   92  A    between atoms: _220  and  _222
REMARK   93  A    between atoms: _222  and  _223
REMARK   94  A    between atoms: _225  and  _227
REMARK   95  A    between atoms: _227  and  _228
REMARK   96  A    between atoms: _227  and  _230
REMARK   97  A    between atoms: _230  and  _231
REMARK   98  A    between atoms: _231  and  _232
REMARK   99  A    between atoms: _235  and  _237
REMARK  100  A    between atoms: _237  and  _238
REMARK  101  A    between atoms: _237  and  _240
REMARK  102  A    between atoms: _240  and  _241
REMARK  103  A    between atoms: _244  and  _246
REMARK  104  A    between atoms: _246  and  _247
REMARK  105  A    between atoms: _246  and  _249
REMARK  106  A    between atoms: _249  and  _250
REMARK  107  A    between atoms: _252  and  _254
REMARK  108  A    between atoms: _254  and  _255
REMARK  109  A    between atoms: _254  and  _257
REMARK  110  A    between atoms: _257  and  _258
REMARK  111  A    between atoms: _261  and  _263
REMARK  112  A    between atoms: _263  and  _264
REMARK  113  A    between atoms: _263  and  _266
REMARK  114  A    between atoms: _266  and  _267
REMARK  115  A    between atoms: _267  and  _268
REMARK  116  A    between atoms: _270  and  _272
REMARK  117  A    between atoms: _272  and  _273
REMARK  118  A    between atoms: _276  and  _278
REMARK  119  A    between atoms: _278  and  _279
REMARK  120  A    between atoms: _282  and  _284
REMARK  121  A    between atoms: _284  and  _285
REMARK  122  A    between atoms: _284  and  _287
REMARK  123  A    between atoms: _287  and  _288
REMARK  124  A    between atoms: _291  and  _293
REMARK  125  A    between atoms: _293  and  _294
REMARK  126  A    between atoms: _297  and  _299
REMARK  127  A    between atoms: _299  and  _300
REMARK  128  A    between atoms: _303  and  _305
REMARK  129  A    between atoms: _305  and  _306
REMARK  130  A    between atoms: _308  and  _310
REMARK  131  A    between atoms: _310  and  _311
REMARK  132  A    between atoms: _310  and  _313
REMARK  133  A    between atoms: _313  and  _314
REMARK  134  A    between atoms: _319  and  _321
REMARK  135  A    between atoms: _321  and  _322
REMARK  136  A    between atoms: _321  and  _324
REMARK  137  A    between atoms: _324  and  _325
REMARK  138  A    between atoms: _328  and  _330
REMARK  139  A    between atoms: _330  and  _331
REMARK  140  A    between atoms: _330  and  _333
REMARK  141  A    between atoms: _336  and  _338
REMARK  142  A    between atoms: _338  and  _339
REMARK  143  A    between atoms: _338  and  _341
REMARK  144  A    between atoms: _341  and  _342
REMARK  145  A    between atoms: _342  and  _343
REMARK  146  A    between atoms: _343  and  _344
REMARK  147  A    between atoms: _344  and  _345
REMARK  148  A    between atoms: _349  and  _351
REMARK  149  A    between atoms: _351  and  _352
REMARK  150  A    between atoms: _351  and  _354
REMARK  151  A    between atoms: _354  and  _355
REMARK  152  A    between atoms: _357  and  _359
REMARK  153  A    between atoms: _359  and  _360
REMARK  154  A    between atoms: _359  and  _362
REMARK  155  A    between atoms: _362  and  _363
REMARK  156  A    between atoms: _368  and  _369
REMARK  157  A    between atoms: _371  and  _373
REMARK  158  A    between atoms: _373  and  _374
REMARK  159  A    between atoms: _373  and  _376
REMARK  160  A    between atoms: _376  and  _377
REMARK  161  A    between atoms: _377  and  _378
REMARK  162  A    between atoms: _381  and  _383
REMARK  163  A    between atoms: _383  and  _384
REMARK  164  A    between atoms: _383  and  _386
REMARK  165  A    between atoms: _386  and  _387
REMARK  166  A    between atoms: _392  and  _394
REMARK  167  A    between atoms: _394  and  _395
REMARK  168  A    between atoms: _394  and  _397
REMARK  169  A    between atoms: _397  and  _398
REMARK  170  A    between atoms: _401  and  _403
REMARK  171  A    between atoms: _403  and  _404
REMARK  172  A    between atoms: _403  and  _406
REMARK  173  A    between atoms: _406  and  _407
REMARK  174  A    between atoms: _407  and  _408
REMARK  175  A    between atoms: _408  and  _409
REMARK  176  A    between atoms: _418  and  _420
REMARK  177  A    between atoms: _420  and  _421
REMARK  178  A    between atoms: _423  and  _425
REMARK  179  A    between atoms: _425  and  _426
REMARK  180  A    between atoms: _425  and  _428
REMARK  181  A    between atoms: _428  and  _429
REMARK  182  A    between atoms: _429  and  _430
REMARK  183  A    between atoms: _432  and  _434
REMARK  184  A    between atoms: _434  and  _435
REMARK  185  A    between atoms: _434  and  _437
REMARK  186  A    between atoms: _437  and  _438
REMARK  187  A    between atoms: _438  and  _439
REMARK  188  A    between atoms: _441  and  _443
REMARK  189  A    between atoms: _443  and  _444
REMARK  190  A    between atoms: _443  and  _446
REMARK  191  A    between atoms: _446  and  _447
REMARK  192  A    between atoms: _452  and  _454
REMARK  193  A    between atoms: _454  and  _455
REMARK  194  A    between atoms: _454  and  _457
REMARK  195  A    between atoms: _457  and  _458
REMARK  196  A    between atoms: _460  and  _462
REMARK  197  A    between atoms: _462  and  _463
REMARK  198  A    between atoms: _466  and  _468
REMARK  199  A    between atoms: _468  and  _469
REMARK  200  A    between atoms: _468  and  _471
REMARK  201  A    between atoms: _474  and  _476
REMARK  202  A    between atoms: _476  and  _477
REMARK  203  A    between atoms: _476  and  _479
REMARK  204  A    between atoms: _479  and  _480
REMARK  205  A    between atoms: _482  and  _484
REMARK  206  A    between atoms: _484  and  _485
REMARK  207  A    between atoms: _487  and  _489
REMARK  208  A    between atoms: _489  and  _490
REMARK  209  A    between atoms: _489  and  _492
REMARK  210  A    between atoms: _492  and  _493
REMARK  211  A    between atoms: _498  and  _500
REMARK  212  A    between atoms: _500  and  _501
REMARK  213  A    between atoms: _500  and  _503
REMARK  214  A    between atoms: _503  and  _504
REMARK  215  A    between atoms: _509  and  _510
REMARK  216  A    between atoms: _512  and  _514
REMARK  217  A    between atoms: _514  and  _515
REMARK  218  A    between atoms: _514  and  _517
REMARK  219  A    between atoms: _519  and  _521
REMARK  220  A    between atoms: _521  and  _522
REMARK  221  A    between atoms: _521  and  _524
REMARK  222  A    between atoms: _524  and  _525
REMARK  223  A    between atoms: _528  and  _530
REMARK  224  A    between atoms: _530  and  _531
REMARK  225  A    between atoms: _530  and  _533
REMARK  226  A    between atoms: _533  and  _534
REMARK  227  A    between atoms: _537  and  _539
REMARK  228  A    between atoms: _539  and  _540
REMARK  229  A    between atoms: _539  and  _542
REMARK  230  A    between atoms: _542  and  _543
REMARK  231  A    between atoms: _543  and  _544
REMARK  232  A    between atoms: _544  and  _545
REMARK  233  A    between atoms: _545  and  _546
REMARK  234  A    between atoms: _550  and  _552
REMARK  235  A    between atoms: _552  and  _553
REMARK  236  A    between atoms: _552  and  _555
REMARK  237  A    between atoms: _555  and  _556
REMARK  238  A    between atoms: _556  and  _557
REMARK  239  A    between atoms: _557  and  _558
REMARK  240  A    between atoms: _558  and  _559
REMARK  241  A    between atoms: _563  and  _565
REMARK  242  A    between atoms: _565  and  _566
REMARK  243  A    between atoms: _565  and  _568
REMARK  244  A    between atoms: _568  and  _569
REMARK  245  A    between atoms: _569  and  _570
REMARK  246  A    between atoms: _570  and  _571
REMARK  247  A    between atoms: _580  and  _582
REMARK  248  A    between atoms: _582  and  _583
REMARK  249  A    between atoms: _582  and  _585
REMARK  250  A    between atoms: _585  and  _586
REMARK  251  A    between atoms: _589  and  _591
REMARK  252  A    between atoms: _591  and  _592
REMARK  253  A    between atoms: _595  and  _597
REMARK  254  A    between atoms: _597  and  _598
REMARK  255  A    between atoms: _597  and  _600
REMARK  256  A    between atoms: _600  and  _601
REMARK  257  A    between atoms: _601  and  _602
REMARK                            x       y       z     vdW  Elec       q    Type
REMARK                         _______ _______ _______ _____ _____    ______ ____
ROOT
ATOM      1  O   HOH     1      13.971  16.381  46.815  0.00  0.00    +0.000 OA
ENDROOT
TORSDOF 0
REMARK  Name = ../refined-set-2016/3cd5/3cd5_pocket.pdb
REMARK  257 active torsions:
REMARK  status: ('A' for Active; 'I' for Inactive)
REMARK    1  A    between atoms: _1  and  _3
REMARK    2  A    between atoms: _3  and  _4
REMARK    3  A    between atoms: _3  and  _6
REMARK    4  A    between atoms: _6  and  _7
REMARK    5  A    between atoms: _7  and  _8
REMARK    6  A    between atoms: _11  and  _13
REMARK    7  A    between atoms: _13  and  _14
REMARK    8  A    between atoms: _16  and  _18
REMARK    9  A    between atoms: _18  and  _19
REMARK   10  A    between atoms: _18  and  _21
REMARK   11  A    between atoms: _23  and  _25
REMARK   12  A    between atoms: _25  and  _26
REMARK   13  A    between atoms: _25  and  _28
REMARK   14  A    between atoms: _28  and  _29
REMARK   15  A    between atoms: _32  and  _34
REMARK   16  A    between atoms: _34  and  _35
REMARK   17  A    between atoms: _34  and  _37
REMARK   18  A    between atoms: _40  and  _42
REMARK   19  A    between atoms: _42  and  _43
REMARK   20  A    between atoms: _46  and  _48
REMARK   21  A    between atoms: _48  and  _49
REMARK   22  A    between atoms: _48  and  _51
REMARK   23  A    between atoms: _51  and  _52
REMARK   24  A    between atoms: _54  and  _56
REMARK   25  A    between atoms: _56  and  _57
REMARK   26  A    between atoms: _56  and  _59
REMARK   27  A    between atoms: _59  and  _60
REMARK   28  A    between atoms: _63  and  _65
REMARK   29  A    between atoms: _65  and  _66
REMARK   30  A    between atoms: _65  and  _68
REMARK   31  A    between atoms: _68  and  _69
REMARK   32  A    between atoms: _74  and  _76
REMARK   33  A    between atoms: _76  and  _77
REMARK   34  A    between atoms: _76  and  _79
REMARK   35  A    between atoms: _79  and  _80
REMARK   36  A    between atoms: _80  and  _81
REMARK   37  A    between atoms: _81  and  _82
REMARK   38  A    between atoms: _91  and  _93
REMARK   39  A    between atoms: _93  and  _94
REMARK   40  A    between atoms: _96  and  _98
REMARK   41  A    between atoms: _98  and  _99
REMARK   42  A    between atoms: _98  and  _101
REMARK   43  A    between atoms: _101  and  _102
REMARK   44  A    between atoms: _102  and  _103
REMARK   45  A    between atoms: _106  and  _108
REMARK   46  A    between atoms: _108  and  _109
REMARK   47  A    between atoms: _108  and  _111
REMARK   48  A    between atoms: _114  and  _116
REMARK   49  A    between atoms: _116  and  _117
REMARK   50  A    between atoms: _116  and  _119
REMARK   51  A    between atoms: _119  and  _120
REMARK   52  A    between atoms: _123  and  _125
REMARK   53  A    between atoms: _125  and  _126
REMARK   54  A    between atoms: _125  and  _128
REMARK   55  A    between atoms: _128  and  _129
REMARK   56  A    between atoms: _129  and  _130
REMARK   57  A    between atoms: _130  and  _131
REMARK   58  A    between atoms: _131  and  _132
REMARK   59  A    between atoms: _136  and  _138
REMARK   60  A    between atoms: _138  and  _139
REMARK   61  A    between atoms: _138  and  _141
REMARK   62  A    between atoms: _141  and  _142
REMARK   63  A    between atoms: _142  and  _143
REMARK   64  A    between atoms: _143  and  _144
REMARK   65  A    between atoms: _144  and  _145
REMARK   66  A    between atoms: _149  and  _151
REMARK   67  A    between atoms: _151  and  _152
REMARK   68  A    between atoms: _151  and  _154
REMARK   69  A    between atoms: _154  and  _155
REMARK   70  A    between atoms: _160  and  _162
REMARK   71  A    between atoms: _162  and  _163
REMARK   72  A    between atoms: _162  and  _165
REMARK   73  A    between atoms: _165  and  _166
REMARK   74  A    between atoms: _171  and  _173
REMARK   75  A    between atoms: _173  and  _174
REMARK   76  A    between atoms: _177  and  _179
REMARK   77  A    between atoms: _179  and  _180
REMARK   78  A    between atoms: _179  and  _182
REMARK   79  A    between atoms: _182  and  _183
REMARK   80  A    between atoms: _188  and  _190
REMARK   81  A    between atoms: _190  and  _191
REMARK   82  A    between atoms: _194  and  _196
REMARK   83  A    between atoms: _196  and  _197
REMARK   84  A    between atoms: _200  and  _202
REMARK   85  A    between atoms: _202  and  _203
REMARK   86  A    between atoms: _202  and  _205
REMARK   87  A    between atoms: _205  and  _206
REMARK   88  A    between atoms: _211  and  _213
REMARK   89  A    between atoms: _213  and  _214
REMARK   90  A    between atoms: _213  and  _216
REMARK   91  A    between atoms: _216  and  _217
REMARK   92  A    between atoms: _220  and  _222
REMARK   93  A    between atoms: _222  and  _223
REMARK   94  A    between atoms: _225  and  _227
REMARK   95  A    between atoms: _227  and  _228
REMARK   96  A    between atoms: _227  and  _230
REMARK   97  A    between atoms: _230  and  _231
REMARK   98  A    between atoms: _231  and  _232
REMARK   99  A    between atoms: _235  and  _237
REMARK  100  A    between atoms: _237  and  _238
REMARK  101  A    between atoms: _237  and  _240
REMARK  102  A    between atoms: _240  and  _241
REMARK  103  A    between atoms: _244  and  _246
REMARK  104  A    between atoms: _246  and  _247
REMARK  105  A    between atoms: _246  and  _249
REMARK  106  A    between atoms: _249  and  _250
REMARK  107  A    between atoms: _252  and  _254
REMARK  108  A    between atoms: _254  and  _255
REMARK  109  A    between atoms: _254  and  _257
REMARK  110  A    between atoms: _257  and  _258
REMARK  111  A    between atoms: _261  and  _263
REMARK  112  A    between atoms: _263  and  _264
REMARK  113  A    between atoms: _263  and  _266
REMARK  114  A    between atoms: _266  and  _267
REMARK  115  A    between atoms: _267  and  _268
REMARK  116  A    between atoms: _270  and  _272
REMARK  117  A    between atoms: _272  and  _273
REMARK  118  A    between atoms: _276  and  _278
REMARK  119  A    between atoms: _278  and  _279
REMARK  120  A    between atoms: _282  and  _284
REMARK  121  A    between atoms: _284  and  _285
REMARK  122  A    between atoms: _284  and  _287
REMARK  123  A    between atoms: _287  and  _288
REMARK  124  A    between atoms: _291  and  _293
REMARK  125  A    between atoms: _293  and  _294
REMARK  126  A    between atoms: _297  and  _299
REMARK  127  A    between atoms: _299  and  _300
REMARK  128  A    between atoms: _303  and  _305
REMARK  129  A    between atoms: _305  and  _306
REMARK  130  A    between atoms: _308  and  _310
REMARK  131  A    between atoms: _310  and  _311
REMARK  132  A    between atoms: _310  and  _313
REMARK  133  A    between atoms: _313  and  _314
REMARK  134  A    between atoms: _319  and  _321
REMARK  135  A    between atoms: _321  and  _322
REMARK  136  A    between atoms: _321  and  _324
REMARK  137  A    between atoms: _324  and  _325
REMARK  138  A    between atoms: _328  and  _330
REMARK  139  A    between atoms: _330  and  _331
REMARK  140  A    between atoms: _330  and  _333
REMARK  141  A    between atoms: _336  and  _338
REMARK  142  A    between atoms: _338  and  _339
REMARK  143  A    between atoms: _338  and  _341
REMARK  144  A    between atoms: _341  and  _342
REMARK  145  A    between atoms: _342  and  _343
REMARK  146  A    between atoms: _343  and  _344
REMARK  147  A    between atoms: _344  and  _345
REMARK  148  A    between atoms: _349  and  _351
REMARK  149  A    between atoms: _351  and  _352
REMARK  150  A    between atoms: _351  and  _354
REMARK  151  A    between atoms: _354  and  _355
REMARK  152  A    between atoms: _357  and  _359
REMARK  153  A    between atoms: _359  and  _360
REMARK  154  A    between atoms: _359  and  _362
REMARK  155  A    between atoms: _362  and  _363
REMARK  156  A    between atoms: _368  and  _369
REMARK  157  A    between atoms: _371  and  _373
REMARK  158  A    between atoms: _373  and  _374
REMARK  159  A    between atoms: _373  and  _376
REMARK  160  A    between atoms: _376  and  _377
REMARK  161  A    between atoms: _377  and  _378
REMARK  162  A    between atoms: _381  and  _383
REMARK  163  A    between atoms: _383  and  _384
REMARK  164  A    between atoms: _383  and  _386
REMARK  165  A    between atoms: _386  and  _387
REMARK  166  A    between atoms: _392  and  _394
REMARK  167  A    between atoms: _394  and  _395
REMARK  168  A    between atoms: _394  and  _397
REMARK  169  A    between atoms: _397  and  _398
REMARK  170  A    between atoms: _401  and  _403
REMARK  171  A    between atoms: _403  and  _404
REMARK  172  A    between atoms: _403  and  _406
REMARK  173  A    between atoms: _406  and  _407
REMARK  174  A    between atoms: _407  and  _408
REMARK  175  A    between atoms: _408  and  _409
REMARK  176  A    between atoms: _418  and  _420
REMARK  177  A    between atoms: _420  and  _421
REMARK  178  A    between atoms: _423  and  _425
REMARK  179  A    between atoms: _425  and  _426
REMARK  180  A    between atoms: _425  and  _428
REMARK  181  A    between atoms: _428  and  _429
REMARK  182  A    between atoms: _429  and  _430
REMARK  183  A    between atoms: _432  and  _434
REMARK  184  A    between atoms: _434  and  _435
REMARK  185  A    between atoms: _434  and  _437
REMARK  186  A    between atoms: _437  and  _438
REMARK  187  A    between atoms: _438  and  _439
REMARK  188  A    between atoms: _441  and  _443
REMARK  189  A    between atoms: _443  and  _444
REMARK  190  A    between atoms: _443  and  _446
REMARK  191  A    between atoms: _446  and  _447
REMARK  192  A    between atoms: _452  and  _454
REMARK  193  A    between atoms: _454  and  _455
REMARK  194  A    between atoms: _454  and  _457
REMARK  195  A    between atoms: _457  and  _458
REMARK  196  A    between atoms: _460  and  _462
REMARK  197  A    between atoms: _462  and  _463
REMARK  198  A    between atoms: _466  and  _468
REMARK  199  A    between atoms: _468  and  _469
REMARK  200  A    between atoms: _468  and  _471
REMARK  201  A    between atoms: _474  and  _476
REMARK  202  A    between atoms: _476  and  _477
REMARK  203  A    between atoms: _476  and  _479
REMARK  204  A    between atoms: _479  and  _480
REMARK  205  A    between atoms: _482  and  _484
REMARK  206  A    between atoms: _484  and  _485
REMARK  207  A    between atoms: _487  and  _489
REMARK  208  A    between atoms: _489  and  _490
REMARK  209  A    between atoms: _489  and  _492
REMARK  210  A    between atoms: _492  and  _493
REMARK  211  A    between atoms: _498  and  _500
REMARK  212  A    between atoms: _500  and  _501
REMARK  213  A    between atoms: _500  and  _503
REMARK  214  A    between atoms: _503  and  _504
REMARK  215  A    between atoms: _509  and  _510
REMARK  216  A    between atoms: _512  and  _514
REMARK  217  A    between atoms: _514  and  _515
REMARK  218  A    between atoms: _514  and  _517
REMARK  219  A    between atoms: _519  and  _521
REMARK  220  A    between atoms: _521  and  _522
REMARK  221  A    between atoms: _521  and  _524
REMARK  222  A    between atoms: _524  and  _525
REMARK  223  A    between atoms: _528  and  _530
REMARK  224  A    between atoms: _530  and  _531
REMARK  225  A    between atoms: _530  and  _533
REMARK  226  A    between atoms: _533  and  _534
REMARK  227  A    between atoms: _537  and  _539
REMARK  228  A    between atoms: _539  and  _540
REMARK  229  A    between atoms: _539  and  _542
REMARK  230  A    between atoms: _542  and  _543
REMARK  231  A    between atoms: _543  and  _544
REMARK  232  A    between atoms: _544  and  _545
REMARK  233  A    between atoms: _545  and  _546
REMARK  234  A    between atoms: _550  and  _552
REMARK  235  A    between atoms: _552  and  _553
REMARK  236  A    between atoms: _552  and  _555
REMARK  237  A    between atoms: _555  and  _556
REMARK  238  A    between atoms: _556  and  _557
REMARK  239  A    between atoms: _557  and  _558
REMARK  240  A    between atoms: _558  and  _559
REMARK  241  A    between atoms: _563  and  _565
REMARK  242  A    between atoms: _565  and  _566
REMARK  243  A    between atoms: _565  and  _568
REMARK  244  A    between atoms: _568  and  _569
REMARK  245  A    between atoms: _569  and  _570
REMARK  246  A    between atoms: _570  and  _571
REMARK  247  A    between atoms: _580  and  _582
REMARK  248  A    between atoms: _582  and  _583
REMARK  249  A    between atoms: _582  and  _585
REMARK  250  A    between atoms: _585  and  _586
REMARK  251  A    between atoms: _589  and  _591
REMARK  252  A    between atoms: _591  and  _592
REMARK  253  A    between atoms: _595  and  _597
REMARK  254  A    between atoms: _597  and  _598
REMARK  255  A    between atoms: _597  and  _600
REMARK  256  A    between atoms: _600  and  _601
REMARK  257  A    between atoms: _601  and  _602
REMARK                            x       y       z     vdW  Elec       q    Type
REMARK                         _______ _______ _______ _____ _____    ______ ____
ROOT
ATOM      1  O   HOH     1       8.064  15.000  42.191  0.00  0.00    +0.000 OA
ENDROOT
TORSDOF 0
REMARK  Name = ../refined-set-2016/3cd5/3cd5_pocket.pdb
REMARK  257 active torsions:
REMARK  status: ('A' for Active; 'I' for Inactive)
REMARK    1  A    between atoms: _1  and  _3
REMARK    2  A    between atoms: _3  and  _4
REMARK    3  A    between atoms: _3  and  _6
REMARK    4  A    between atoms: _6  and  _7
REMARK    5  A    between atoms: _7  and  _8
REMARK    6  A    between atoms: _11  and  _13
REMARK    7  A    between atoms: _13  and  _14
REMARK    8  A    between atoms: _16  and  _18
REMARK    9  A    between atoms: _18  and  _19
REMARK   10  A    between atoms: _18  and  _21
REMARK   11  A    between atoms: _23  and  _25
REMARK   12  A    between atoms: _25  and  _26
REMARK   13  A    between atoms: _25  and  _28
REMARK   14  A    between atoms: _28  and  _29
REMARK   15  A    between atoms: _32  and  _34
REMARK   16  A    between atoms: _34  and  _35
REMARK   17  A    between atoms: _34  and  _37
REMARK   18  A    between atoms: _40  and  _42
REMARK   19  A    between atoms: _42  and  _43
REMARK   20  A    between atoms: _46  and  _48
REMARK   21  A    between atoms: _48  and  _49
REMARK   22  A    between atoms: _48  and  _51
REMARK   23  A    between atoms: _51  and  _52
REMARK   24  A    between atoms: _54  and  _56
REMARK   25  A    between atoms: _56  and  _57
REMARK   26  A    between atoms: _56  and  _59
REMARK   27  A    between atoms: _59  and  _60
REMARK   28  A    between atoms: _63  and  _65
REMARK   29  A    between atoms: _65  and  _66
REMARK   30  A    between atoms: _65  and  _68
REMARK   31  A    between atoms: _68  and  _69
REMARK   32  A    between atoms: _74  and  _76
REMARK   33  A    between atoms: _76  and  _77
REMARK   34  A    between atoms: _76  and  _79
REMARK   35  A    between atoms: _79  and  _80
REMARK   36  A    between atoms: _80  and  _81
REMARK   37  A    between atoms: _81  and  _82
REMARK   38  A    between atoms: _91  and  _93
REMARK   39  A    between atoms: _93  and  _94
REMARK   40  A    between atoms: _96  and  _98
REMARK   41  A    between atoms: _98  and  _99
REMARK   42  A    between atoms: _98  and  _101
REMARK   43  A    between atoms: _101  and  _102
REMARK   44  A    between atoms: _102  and  _103
REMARK   45  A    between atoms: _106  and  _108
REMARK   46  A    between atoms: _108  and  _109
REMARK   47  A    between atoms: _108  and  _111
REMARK   48  A    between atoms: _114  and  _116
REMARK   49  A    between atoms: _116  and  _117
REMARK   50  A    between atoms: _116  and  _119
REMARK   51  A    between atoms: _119  and  _120
REMARK   52  A    between atoms: _123  and  _125
REMARK   53  A    between atoms: _125  and  _126
REMARK   54  A    between atoms: _125  and  _128
REMARK   55  A    between atoms: _128  and  _129
REMARK   56  A    between atoms: _129  and  _130
REMARK   57  A    between atoms: _130  and  _131
REMARK   58  A    between atoms: _131  and  _132
REMARK   59  A    between atoms: _136  and  _138
REMARK   60  A    between atoms: _138  and  _139
REMARK   61  A    between atoms: _138  and  _141
REMARK   62  A    between atoms: _141  and  _142
REMARK   63  A    between atoms: _142  and  _143
REMARK   64  A    between atoms: _143  and  _144
REMARK   65  A    between atoms: _144  and  _145
REMARK   66  A    between atoms: _149  and  _151
REMARK   67  A    between atoms: _151  and  _152
REMARK   68  A    between atoms: _151  and  _154
REMARK   69  A    between atoms: _154  and  _155
REMARK   70  A    between atoms: _160  and  _162
REMARK   71  A    between atoms: _162  and  _163
REMARK   72  A    between atoms: _162  and  _165
REMARK   73  A    between atoms: _165  and  _166
REMARK   74  A    between atoms: _171  and  _173
REMARK   75  A    between atoms: _173  and  _174
REMARK   76  A    between atoms: _177  and  _179
REMARK   77  A    between atoms: _179  and  _180
REMARK   78  A    between atoms: _179  and  _182
REMARK   79  A    between atoms: _182  and  _183
REMARK   80  A    between atoms: _188  and  _190
REMARK   81  A    between atoms: _190  and  _191
REMARK   82  A    between atoms: _194  and  _196
REMARK   83  A    between atoms: _196  and  _197
REMARK   84  A    between atoms: _200  and  _202
REMARK   85  A    between atoms: _202  and  _203
REMARK   86  A    between atoms: _202  and  _205
REMARK   87  A    between atoms: _205  and  _206
REMARK   88  A    between atoms: _211  and  _213
REMARK   89  A    between atoms: _213  and  _214
REMARK   90  A    between atoms: _213  and  _216
REMARK   91  A    between atoms: _216  and  _217
REMARK   92  A    between atoms: _220  and  _222
REMARK   93  A    between atoms: _222  and  _223
REMARK   94  A    between atoms: _225  and  _227
REMARK   95  A    between atoms: _227  and  _228
REMARK   96  A    between atoms: _227  and  _230
REMARK   97  A    between atoms: _230  and  _231
REMARK   98  A    between atoms: _231  and  _232
REMARK   99  A    between atoms: _235  and  _237
REMARK  100  A    between atoms: _237  and  _238
REMARK  101  A    between atoms: _237  and  _240
REMARK  102  A    between atoms: _240  and  _241
REMARK  103  A    between atoms: _244  and  _246
REMARK  104  A    between atoms: _246  and  _247
REMARK  105  A    between atoms: _246  and  _249
REMARK  106  A    between atoms: _249  and  _250
REMARK  107  A    between atoms: _252  and  _254
REMARK  108  A    between atoms: _254  and  _255
REMARK  109  A    between atoms: _254  and  _257
REMARK  110  A    between atoms: _257  and  _258
REMARK  111  A    between atoms: _261  and  _263
REMARK  112  A    between atoms: _263  and  _264
REMARK  113  A    between atoms: _263  and  _266
REMARK  114  A    between atoms: _266  and  _267
REMARK  115  A    between atoms: _267  and  _268
REMARK  116  A    between atoms: _270  and  _272
REMARK  117  A    between atoms: _272  and  _273
REMARK  118  A    between atoms: _276  and  _278
REMARK  119  A    between atoms: _278  and  _279
REMARK  120  A    between atoms: _282  and  _284
REMARK  121  A    between atoms: _284  and  _285
REMARK  122  A    between atoms: _284  and  _287
REMARK  123  A    between atoms: _287  and  _288
REMARK  124  A    between atoms: _291  and  _293
REMARK  125  A    between atoms: _293  and  _294
REMARK  126  A    between atoms: _297  and  _299
REMARK  127  A    between atoms: _299  and  _300
REMARK  128  A    between atoms: _303  and  _305
REMARK  129  A    between atoms: _305  and  _306
REMARK  130  A    between atoms: _308  and  _310
REMARK  131  A    between atoms: _310  and  _311
REMARK  132  A    between atoms: _310  and  _313
REMARK  133  A    between atoms: _313  and  _314
REMARK  134  A    between atoms: _319  and  _321
REMARK  135  A    between atoms: _321  and  _322
REMARK  136  A    between atoms: _321  and  _324
REMARK  137  A    between atoms: _324  and  _325
REMARK  138  A    between atoms: _328  and  _330
REMARK  139  A    between atoms: _330  and  _331
REMARK  140  A    between atoms: _330  and  _333
REMARK  141  A    between atoms: _336  and  _338
REMARK  142  A    between atoms: _338  and  _339
REMARK  143  A    between atoms: _338  and  _341
REMARK  144  A    between atoms: _341  and  _342
REMARK  145  A    between atoms: _342  and  _343
REMARK  146  A    between atoms: _343  and  _344
REMARK  147  A    between atoms: _344  and  _345
REMARK  148  A    between atoms: _349  and  _351
REMARK  149  A    between atoms: _351  and  _352
REMARK  150  A    between atoms: _351  and  _354
REMARK  151  A    between atoms: _354  and  _355
REMARK  152  A    between atoms: _357  and  _359
REMARK  153  A    between atoms: _359  and  _360
REMARK  154  A    between atoms: _359  and  _362
REMARK  155  A    between atoms: _362  and  _363
REMARK  156  A    between atoms: _368  and  _369
REMARK  157  A    between atoms: _371  and  _373
REMARK  158  A    between atoms: _373  and  _374
REMARK  159  A    between atoms: _373  and  _376
REMARK  160  A    between atoms: _376  and  _377
REMARK  161  A    between atoms: _377  and  _378
REMARK  162  A    between atoms: _381  and  _383
REMARK  163  A    between atoms: _383  and  _384
REMARK  164  A    between atoms: _383  and  _386
REMARK  165  A    between atoms: _386  and  _387
REMARK  166  A    between atoms: _392  and  _394
REMARK  167  A    between atoms: _394  and  _395
REMARK  168  A    between atoms: _394  and  _397
REMARK  169  A    between atoms: _397  and  _398
REMARK  170  A    between atoms: _401  and  _403
REMARK  171  A    between atoms: _403  and  _404
REMARK  172  A    between atoms: _403  and  _406
REMARK  173  A    between atoms: _406  and  _407
REMARK  174  A    between atoms: _407  and  _408
REMARK  175  A    between atoms: _408  and  _409
REMARK  176  A    between atoms: _418  and  _420
REMARK  177  A    between atoms: _420  and  _421
REMARK  178  A    between atoms: _423  and  _425
REMARK  179  A    between atoms: _425  and  _426
REMARK  180  A    between atoms: _425  and  _428
REMARK  181  A    between atoms: _428  and  _429
REMARK  182  A    between atoms: _429  and  _430
REMARK  183  A    between atoms: _432  and  _434
REMARK  184  A    between atoms: _434  and  _435
REMARK  185  A    between atoms: _434  and  _437
REMARK  186  A    between atoms: _437  and  _438
REMARK  187  A    between atoms: _438  and  _439
REMARK  188  A    between atoms: _441  and  _443
REMARK  189  A    between atoms: _443  and  _444
REMARK  190  A    between atoms: _443  and  _446
REMARK  191  A    between atoms: _446  and  _447
REMARK  192  A    between atoms: _452  and  _454
REMARK  193  A    between atoms: _454  and  _455
REMARK  194  A    between atoms: _454  and  _457
REMARK  195  A    between atoms: _457  and  _458
REMARK  196  A    between atoms: _460  and  _462
REMARK  197  A    between atoms: _462  and  _463
REMARK  198  A    between atoms: _466  and  _468
REMARK  199  A    between atoms: _468  and  _469
REMARK  200  A    between atoms: _468  and  _471
REMARK  201  A    between atoms: _474  and  _476
REMARK  202  A    between atoms: _476  and  _477
REMARK  203  A    between atoms: _476  and  _479
REMARK  204  A    between atoms: _479  and  _480
REMARK  205  A    between atoms: _482  and  _484
REMARK  206  A    between atoms: _484  and  _485
REMARK  207  A    between atoms: _487  and  _489
REMARK  208  A    between atoms: _489  and  _490
REMARK  209  A    between atoms: _489  and  _492
REMARK  210  A    between atoms: _492  and  _493
REMARK  211  A    between atoms: _498  and  _500
REMARK  212  A    between atoms: _500  and  _501
REMARK  213  A    between atoms: _500  and  _503
REMARK  214  A    between atoms: _503  and  _504
REMARK  215  A    between atoms: _509  and  _510
REMARK  216  A    between atoms: _512  and  _514
REMARK  217  A    between atoms: _514  and  _515
REMARK  218  A    between atoms: _514  and  _517
REMARK  219  A    between atoms: _519  and  _521
REMARK  220  A    between atoms: _521  and  _522
REMARK  221  A    between atoms: _521  and  _524
REMARK  222  A    between atoms: _524  and  _525
REMARK  223  A    between atoms: _528  and  _530
REMARK  224  A    between atoms: _530  and  _531
REMARK  225  A    between atoms: _530  and  _533
REMARK  226  A    between atoms: _533  and  _534
REMARK  227  A    between atoms: _537  and  _539
REMARK  228  A    between atoms: _539  and  _540
REMARK  229  A    between atoms: _539  and  _542
REMARK  230  A    between atoms: _542  and  _543
REMARK  231  A    between atoms: _543  and  _544
REMARK  232  A    between atoms: _544  and  _545
REMARK  233  A    between atoms: _545  and  _546
REMARK  234  A    between atoms: _550  and  _552
REMARK  235  A    between atoms: _552  and  _553
REMARK  236  A    between atoms: _552  and  _555
REMARK  237  A    between atoms: _555  and  _556
REMARK  238  A    between atoms: _556  and  _557
REMARK  239  A    between atoms: _557  and  _558
REMARK  240  A    between atoms: _558  and  _559
REMARK  241  A    between atoms: _563  and  _565
REMARK  242  A    between atoms: _565  and  _566
REMARK  243  A    between atoms: _565  and  _568
REMARK  244  A    between atoms: _568  and  _569
REMARK  245  A    between atoms: _569  and  _570
REMARK  246  A    between atoms: _570  and  _571
REMARK  247  A    between atoms: _580  and  _582
REMARK  248  A    between atoms: _582  and  _583
REMARK  249  A    between atoms: _582  and  _585
REMARK  250  A    between atoms: _585  and  _586
REMARK  251  A    between atoms: _589  and  _591
REMARK  252  A    between atoms: _591  and  _592
REMARK  253  A    between atoms: _595  and  _597
REMARK  254  A    between atoms: _597  and  _598
REMARK  255  A    between atoms: _597  and  _600
REMARK  256  A    between atoms: _600  and  _601
REMARK  257  A    between atoms: _601  and  _602
REMARK                            x       y       z     vdW  Elec       q    Type
REMARK                         _______ _______ _______ _____ _____    ______ ____
ROOT
ATOM      1  O   HOH     1      24.003   3.901  49.186  0.00  0.00    +0.000 OA
ENDROOT
TORSDOF 0
REMARK  Name = ../refined-set-2016/3cd5/3cd5_pocket.pdb
REMARK  257 active torsions:
REMARK  status: ('A' for Active; 'I' for Inactive)
REMARK    1  A    between atoms: _1  and  _3
REMARK    2  A    between atoms: _3  and  _4
REMARK    3  A    between atoms: _3  and  _6
REMARK    4  A    between atoms: _6  and  _7
REMARK    5  A    between atoms: _7  and  _8
REMARK    6  A    between atoms: _11  and  _13
REMARK    7  A    between atoms: _13  and  _14
REMARK    8  A    between atoms: _16  and  _18
REMARK    9  A    between atoms: _18  and  _19
REMARK   10  A    between atoms: _18  and  _21
REMARK   11  A    between atoms: _23  and  _25
REMARK   12  A    between atoms: _25  and  _26
REMARK   13  A    between atoms: _25  and  _28
REMARK   14  A    between atoms: _28  and  _29
REMARK   15  A    between atoms: _32  and  _34
REMARK   16  A    between atoms: _34  and  _35
REMARK   17  A    between atoms: _34  and  _37
REMARK   18  A    between atoms: _40  and  _42
REMARK   19  A    between atoms: _42  and  _43
REMARK   20  A    between atoms: _46  and  _48
REMARK   21  A    between atoms: _48  and  _49
REMARK   22  A    between atoms: _48  and  _51
REMARK   23  A    between atoms: _51  and  _52
REMARK   24  A    between atoms: _54  and  _56
REMARK   25  A    between atoms: _56  and  _57
REMARK   26  A    between atoms: _56  and  _59
REMARK   27  A    between atoms: _59  and  _60
REMARK   28  A    between atoms: _63  and  _65
REMARK   29  A    between atoms: _65  and  _66
REMARK   30  A    between atoms: _65  and  _68
REMARK   31  A    between atoms: _68  and  _69
REMARK   32  A    between atoms: _74  and  _76
REMARK   33  A    between atoms: _76  and  _77
REMARK   34  A    between atoms: _76  and  _79
REMARK   35  A    between atoms: _79  and  _80
REMARK   36  A    between atoms: _80  and  _81
REMARK   37  A    between atoms: _81  and  _82
REMARK   38  A    between atoms: _91  and  _93
REMARK   39  A    between atoms: _93  and  _94
REMARK   40  A    between atoms: _96  and  _98
REMARK   41  A    between atoms: _98  and  _99
REMARK   42  A    between atoms: _98  and  _101
REMARK   43  A    between atoms: _101  and  _102
REMARK   44  A    between atoms: _102  and  _103
REMARK   45  A    between atoms: _106  and  _108
REMARK   46  A    between atoms: _108  and  _109
REMARK   47  A    between atoms: _108  and  _111
REMARK   48  A    between atoms: _114  and  _116
REMARK   49  A    between atoms: _116  and  _117
REMARK   50  A    between atoms: _116  and  _119
REMARK   51  A    between atoms: _119  and  _120
REMARK   52  A    between atoms: _123  and  _125
REMARK   53  A    between atoms: _125  and  _126
REMARK   54  A    between atoms: _125  and  _128
REMARK   55  A    between atoms: _128  and  _129
REMARK   56  A    between atoms: _129  and  _130
REMARK   57  A    between atoms: _130  and  _131
REMARK   58  A    between atoms: _131  and  _132
REMARK   59  A    between atoms: _136  and  _138
REMARK   60  A    between atoms: _138  and  _139
REMARK   61  A    between atoms: _138  and  _141
REMARK   62  A    between atoms: _141  and  _142
REMARK   63  A    between atoms: _142  and  _143
REMARK   64  A    between atoms: _143  and  _144
REMARK   65  A    between atoms: _144  and  _145
REMARK   66  A    between atoms: _149  and  _151
REMARK   67  A    between atoms: _151  and  _152
REMARK   68  A    between atoms: _151  and  _154
REMARK   69  A    between atoms: _154  and  _155
REMARK   70  A    between atoms: _160  and  _162
REMARK   71  A    between atoms: _162  and  _163
REMARK   72  A    between atoms: _162  and  _165
REMARK   73  A    between atoms: _165  and  _166
REMARK   74  A    between atoms: _171  and  _173
REMARK   75  A    between atoms: _173  and  _174
REMARK   76  A    between atoms: _177  and  _179
REMARK   77  A    between atoms: _179  and  _180
REMARK   78  A    between atoms: _179  and  _182
REMARK   79  A    between atoms: _182  and  _183
REMARK   80  A    between atoms: _188  and  _190
REMARK   81  A    between atoms: _190  and  _191
REMARK   82  A    between atoms: _194  and  _196
REMARK   83  A    between atoms: _196  and  _197
REMARK   84  A    between atoms: _200  and  _202
REMARK   85  A    between atoms: _202  and  _203
REMARK   86  A    between atoms: _202  and  _205
REMARK   87  A    between atoms: _205  and  _206
REMARK   88  A    between atoms: _211  and  _213
REMARK   89  A    between atoms: _213  and  _214
REMARK   90  A    between atoms: _213  and  _216
REMARK   91  A    between atoms: _216  and  _217
REMARK   92  A    between atoms: _220  and  _222
REMARK   93  A    between atoms: _222  and  _223
REMARK   94  A    between atoms: _225  and  _227
REMARK   95  A    between atoms: _227  and  _228
REMARK   96  A    between atoms: _227  and  _230
REMARK   97  A    between atoms: _230  and  _231
REMARK   98  A    between atoms: _231  and  _232
REMARK   99  A    between atoms: _235  and  _237
REMARK  100  A    between atoms: _237  and  _238
REMARK  101  A    between atoms: _237  and  _240
REMARK  102  A    between atoms: _240  and  _241
REMARK  103  A    between atoms: _244  and  _246
REMARK  104  A    between atoms: _246  and  _247
REMARK  105  A    between atoms: _246  and  _249
REMARK  106  A    between atoms: _249  and  _250
REMARK  107  A    between atoms: _252  and  _254
REMARK  108  A    between atoms: _254  and  _255
REMARK  109  A    between atoms: _254  and  _257
REMARK  110  A    between atoms: _257  and  _258
REMARK  111  A    between atoms: _261  and  _263
REMARK  112  A    between atoms: _263  and  _264
REMARK  113  A    between atoms: _263  and  _266
REMARK  114  A    between atoms: _266  and  _267
REMARK  115  A    between atoms: _267  and  _268
REMARK  116  A    between atoms: _270  and  _272
REMARK  117  A    between atoms: _272  and  _273
REMARK  118  A    between atoms: _276  and  _278
REMARK  119  A    between atoms: _278  and  _279
REMARK  120  A    between atoms: _282  and  _284
REMARK  121  A    between atoms: _284  and  _285
REMARK  122  A    between atoms: _284  and  _287
REMARK  123  A    between atoms: _287  and  _288
REMARK  124  A    between atoms: _291  and  _293
REMARK  125  A    between atoms: _293  and  _294
REMARK  126  A    between atoms: _297  and  _299
REMARK  127  A    between atoms: _299  and  _300
REMARK  128  A    between atoms: _303  and  _305
REMARK  129  A    between atoms: _305  and  _306
REMARK  130  A    between atoms: _308  and  _310
REMARK  131  A    between atoms: _310  and  _311
REMARK  132  A    between atoms: _310  and  _313
REMARK  133  A    between atoms: _313  and  _314
REMARK  134  A    between atoms: _319  and  _321
REMARK  135  A    between atoms: _321  and  _322
REMARK  136  A    between atoms: _321  and  _324
REMARK  137  A    between atoms: _324  and  _325
REMARK  138  A    between atoms: _328  and  _330
REMARK  139  A    between atoms: _330  and  _331
REMARK  140  A    between atoms: _330  and  _333
REMARK  141  A    between atoms: _336  and  _338
REMARK  142  A    between atoms: _338  and  _339
REMARK  143  A    between atoms: _338  and  _341
REMARK  144  A    between atoms: _341  and  _342
REMARK  145  A    between atoms: _342  and  _343
REMARK  146  A    between atoms: _343  and  _344
REMARK  147  A    between atoms: _344  and  _345
REMARK  148  A    between atoms: _349  and  _351
REMARK  149  A    between atoms: _351  and  _352
REMARK  150  A    between atoms: _351  and  _354
REMARK  151  A    between atoms: _354  and  _355
REMARK  152  A    between atoms: _357  and  _359
REMARK  153  A    between atoms: _359  and  _360
REMARK  154  A    between atoms: _359  and  _362
REMARK  155  A    between atoms: _362  and  _363
REMARK  156  A    between atoms: _368  and  _369
REMARK  157  A    between atoms: _371  and  _373
REMARK  158  A    between atoms: _373  and  _374
REMARK  159  A    between atoms: _373  and  _376
REMARK  160  A    between atoms: _376  and  _377
REMARK  161  A    between atoms: _377  and  _378
REMARK  162  A    between atoms: _381  and  _383
REMARK  163  A    between atoms: _383  and  _384
REMARK  164  A    between atoms: _383  and  _386
REMARK  165  A    between atoms: _386  and  _387
REMARK  166  A    between atoms: _392  and  _394
REMARK  167  A    between atoms: _394  and  _395
REMARK  168  A    between atoms: _394  and  _397
REMARK  169  A    between atoms: _397  and  _398
REMARK  170  A    between atoms: _401  and  _403
REMARK  171  A    between atoms: _403  and  _404
REMARK  172  A    between atoms: _403  and  _406
REMARK  173  A    between atoms: _406  and  _407
REMARK  174  A    between atoms: _407  and  _408
REMARK  175  A    between atoms: _408  and  _409
REMARK  176  A    between atoms: _418  and  _420
REMARK  177  A    between atoms: _420  and  _421
REMARK  178  A    between atoms: _423  and  _425
REMARK  179  A    between atoms: _425  and  _426
REMARK  180  A    between atoms: _425  and  _428
REMARK  181  A    between atoms: _428  and  _429
REMARK  182  A    between atoms: _429  and  _430
REMARK  183  A    between atoms: _432  and  _434
REMARK  184  A    between atoms: _434  and  _435
REMARK  185  A    between atoms: _434  and  _437
REMARK  186  A    between atoms: _437  and  _438
REMARK  187  A    between atoms: _438  and  _439
REMARK  188  A    between atoms: _441  and  _443
REMARK  189  A    between atoms: _443  and  _444
REMARK  190  A    between atoms: _443  and  _446
REMARK  191  A    between atoms: _446  and  _447
REMARK  192  A    between atoms: _452  and  _454
REMARK  193  A    between atoms: _454  and  _455
REMARK  194  A    between atoms: _454  and  _457
REMARK  195  A    between atoms: _457  and  _458
REMARK  196  A    between atoms: _460  and  _462
REMARK  197  A    between atoms: _462  and  _463
REMARK  198  A    between atoms: _466  and  _468
REMARK  199  A    between atoms: _468  and  _469
REMARK  200  A    between atoms: _468  and  _471
REMARK  201  A    between atoms: _474  and  _476
REMARK  202  A    between atoms: _476  and  _477
REMARK  203  A    between atoms: _476  and  _479
REMARK  204  A    between atoms: _479  and  _480
REMARK  205  A    between atoms: _482  and  _484
REMARK  206  A    between atoms: _484  and  _485
REMARK  207  A    between atoms: _487  and  _489
REMARK  208  A    between atoms: _489  and  _490
REMARK  209  A    between atoms: _489  and  _492
REMARK  210  A    between atoms: _492  and  _493
REMARK  211  A    between atoms: _498  and  _500
REMARK  212  A    between atoms: _500  and  _501
REMARK  213  A    between atoms: _500  and  _503
REMARK  214  A    between atoms: _503  and  _504
REMARK  215  A    between atoms: _509  and  _510
REMARK  216  A    between atoms: _512  and  _514
REMARK  217  A    between atoms: _514  and  _515
REMARK  218  A    between atoms: _514  and  _517
REMARK  219  A    between atoms: _519  and  _521
REMARK  220  A    between atoms: _521  and  _522
REMARK  221  A    between atoms: _521  and  _524
REMARK  222  A    between atoms: _524  and  _525
REMARK  223  A    between atoms: _528  and  _530
REMARK  224  A    between atoms: _530  and  _531
REMARK  225  A    between atoms: _530  and  _533
REMARK  226  A    between atoms: _533  and  _534
REMARK  227  A    between atoms: _537  and  _539
REMARK  228  A    between atoms: _539  and  _540
REMARK  229  A    between atoms: _539  and  _542
REMARK  230  A    between atoms: _542  and  _543
REMARK  231  A    between atoms: _543  and  _544
REMARK  232  A    between atoms: _544  and  _545
REMARK  233  A    between atoms: _545  and  _546
REMARK  234  A    between atoms: _550  and  _552
REMARK  235  A    between atoms: _552  and  _553
REMARK  236  A    between atoms: _552  and  _555
REMARK  237  A    between atoms: _555  and  _556
REMARK  238  A    between atoms: _556  and  _557
REMARK  239  A    between atoms: _557  and  _558
REMARK  240  A    between atoms: _558  and  _559
REMARK  241  A    between atoms: _563  and  _565
REMARK  242  A    between atoms: _565  and  _566
REMARK  243  A    between atoms: _565  and  _568
REMARK  244  A    between atoms: _568  and  _569
REMARK  245  A    between atoms: _569  and  _570
REMARK  246  A    between atoms: _570  and  _571
REMARK  247  A    between atoms: _580  and  _582
REMARK  248  A    between atoms: _582  and  _583
REMARK  249  A    between atoms: _582  and  _585
REMARK  250  A    between atoms: _585  and  _586
REMARK  251  A    between atoms: _589  and  _591
REMARK  252  A    between atoms: _591  and  _592
REMARK  253  A    between atoms: _595  and  _597
REMARK  254  A    between atoms: _597  and  _598
REMARK  255  A    between atoms: _597  and  _600
REMARK  256  A    between atoms: _600  and  _601
REMARK  257  A    between atoms: _601  and  _602
REMARK                            x       y       z     vdW  Elec       q    Type
REMARK                         _______ _______ _______ _____ _____    ______ ____
ROOT
ATOM      1  O   HOH     1      23.585   3.010  51.798  0.00  0.00    +0.000 OA
ENDROOT
TORSDOF 0
REMARK  Name = ../refined-set-2016/3cd5/3cd5_pocket.pdb
REMARK  257 active torsions:
REMARK  status: ('A' for Active; 'I' for Inactive)
REMARK    1  A    between atoms: _1  and  _3
REMARK    2  A    between atoms: _3  and  _4
REMARK    3  A    between atoms: _3  and  _6
REMARK    4  A    between atoms: _6  and  _7
REMARK    5  A    between atoms: _7  and  _8
REMARK    6  A    between atoms: _11  and  _13
REMARK    7  A    between atoms: _13  and  _14
REMARK    8  A    between atoms: _16  and  _18
REMARK    9  A    between atoms: _18  and  _19
REMARK   10  A    between atoms: _18  and  _21
REMARK   11  A    between atoms: _23  and  _25
REMARK   12  A    between atoms: _25  and  _26
REMARK   13  A    between atoms: _25  and  _28
REMARK   14  A    between atoms: _28  and  _29
REMARK   15  A    between atoms: _32  and  _34
REMARK   16  A    between atoms: _34  and  _35
REMARK   17  A    between atoms: _34  and  _37
REMARK   18  A    between atoms: _40  and  _42
REMARK   19  A    between atoms: _42  and  _43
REMARK   20  A    between atoms: _46  and  _48
REMARK   21  A    between atoms: _48  and  _49
REMARK   22  A    between atoms: _48  and  _51
REMARK   23  A    between atoms: _51  and  _52
REMARK   24  A    between atoms: _54  and  _56
REMARK   25  A    between atoms: _56  and  _57
REMARK   26  A    between atoms: _56  and  _59
REMARK   27  A    between atoms: _59  and  _60
REMARK   28  A    between atoms: _63  and  _65
REMARK   29  A    between atoms: _65  and  _66
REMARK   30  A    between atoms: _65  and  _68
REMARK   31  A    between atoms: _68  and  _69
REMARK   32  A    between atoms: _74  and  _76
REMARK   33  A    between atoms: _76  and  _77
REMARK   34  A    between atoms: _76  and  _79
REMARK   35  A    between atoms: _79  and  _80
REMARK   36  A    between atoms: _80  and  _81
REMARK   37  A    between atoms: _81  and  _82
REMARK   38  A    between atoms: _91  and  _93
REMARK   39  A    between atoms: _93  and  _94
REMARK   40  A    between atoms: _96  and  _98
REMARK   41  A    between atoms: _98  and  _99
REMARK   42  A    between atoms: _98  and  _101
REMARK   43  A    between atoms: _101  and  _102
REMARK   44  A    between atoms: _102  and  _103
REMARK   45  A    between atoms: _106  and  _108
REMARK   46  A    between atoms: _108  and  _109
REMARK   47  A    between atoms: _108  and  _111
REMARK   48  A    between atoms: _114  and  _116
REMARK   49  A    between atoms: _116  and  _117
REMARK   50  A    between atoms: _116  and  _119
REMARK   51  A    between atoms: _119  and  _120
REMARK   52  A    between atoms: _123  and  _125
REMARK   53  A    between atoms: _125  and  _126
REMARK   54  A    between atoms: _125  and  _128
REMARK   55  A    between atoms: _128  and  _129
REMARK   56  A    between atoms: _129  and  _130
REMARK   57  A    between atoms: _130  and  _131
REMARK   58  A    between atoms: _131  and  _132
REMARK   59  A    between atoms: _136  and  _138
REMARK   60  A    between atoms: _138  and  _139
REMARK   61  A    between atoms: _138  and  _141
REMARK   62  A    between atoms: _141  and  _142
REMARK   63  A    between atoms: _142  and  _143
REMARK   64  A    between atoms: _143  and  _144
REMARK   65  A    between atoms: _144  and  _145
REMARK   66  A    between atoms: _149  and  _151
REMARK   67  A    between atoms: _151  and  _152
REMARK   68  A    between atoms: _151  and  _154
REMARK   69  A    between atoms: _154  and  _155
REMARK   70  A    between atoms: _160  and  _162
REMARK   71  A    between atoms: _162  and  _163
REMARK   72  A    between atoms: _162  and  _165
REMARK   73  A    between atoms: _165  and  _166
REMARK   74  A    between atoms: _171  and  _173
REMARK   75  A    between atoms: _173  and  _174
REMARK   76  A    between atoms: _177  and  _179
REMARK   77  A    between atoms: _179  and  _180
REMARK   78  A    between atoms: _179  and  _182
REMARK   79  A    between atoms: _182  and  _183
REMARK   80  A    between atoms: _188  and  _190
REMARK   81  A    between atoms: _190  and  _191
REMARK   82  A    between atoms: _194  and  _196
REMARK   83  A    between atoms: _196  and  _197
REMARK   84  A    between atoms: _200  and  _202
REMARK   85  A    between atoms: _202  and  _203
REMARK   86  A    between atoms: _202  and  _205
REMARK   87  A    between atoms: _205  and  _206
REMARK   88  A    between atoms: _211  and  _213
REMARK   89  A    between atoms: _213  and  _214
REMARK   90  A    between atoms: _213  and  _216
REMARK   91  A    between atoms: _216  and  _217
REMARK   92  A    between atoms: _220  and  _222
REMARK   93  A    between atoms: _222  and  _223
REMARK   94  A    between atoms: _225  and  _227
REMARK   95  A    between atoms: _227  and  _228
REMARK   96  A    between atoms: _227  and  _230
REMARK   97  A    between atoms: _230  and  _231
REMARK   98  A    between atoms: _231  and  _232
REMARK   99  A    between atoms: _235  and  _237
REMARK  100  A    between atoms: _237  and  _238
REMARK  101  A    between atoms: _237  and  _240
REMARK  102  A    between atoms: _240  and  _241
REMARK  103  A    between atoms: _244  and  _246
REMARK  104  A    between atoms: _246  and  _247
REMARK  105  A    between atoms: _246  and  _249
REMARK  106  A    between atoms: _249  and  _250
REMARK  107  A    between atoms: _252  and  _254
REMARK  108  A    between atoms: _254  and  _255
REMARK  109  A    between atoms: _254  and  _257
REMARK  110  A    between atoms: _257  and  _258
REMARK  111  A    between atoms: _261  and  _263
REMARK  112  A    between atoms: _263  and  _264
REMARK  113  A    between atoms: _263  and  _266
REMARK  114  A    between atoms: _266  and  _267
REMARK  115  A    between atoms: _267  and  _268
REMARK  116  A    between atoms: _270  and  _272
REMARK  117  A    between atoms: _272  and  _273
REMARK  118  A    between atoms: _276  and  _278
REMARK  119  A    between atoms: _278  and  _279
REMARK  120  A    between atoms: _282  and  _284
REMARK  121  A    between atoms: _284  and  _285
REMARK  122  A    between atoms: _284  and  _287
REMARK  123  A    between atoms: _287  and  _288
REMARK  124  A    between atoms: _291  and  _293
REMARK  125  A    between atoms: _293  and  _294
REMARK  126  A    between atoms: _297  and  _299
REMARK  127  A    between atoms: _299  and  _300
REMARK  128  A    between atoms: _303  and  _305
REMARK  129  A    between atoms: _305  and  _306
REMARK  130  A    between atoms: _308  and  _310
REMARK  131  A    between atoms: _310  and  _311
REMARK  132  A    between atoms: _310  and  _313
REMARK  133  A    between atoms: _313  and  _314
REMARK  134  A    between atoms: _319  and  _321
REMARK  135  A    between atoms: _321  and  _322
REMARK  136  A    between atoms: _321  and  _324
REMARK  137  A    between atoms: _324  and  _325
REMARK  138  A    between atoms: _328  and  _330
REMARK  139  A    between atoms: _330  and  _331
REMARK  140  A    between atoms: _330  and  _333
REMARK  141  A    between atoms: _336  and  _338
REMARK  142  A    between atoms: _338  and  _339
REMARK  143  A    between atoms: _338  and  _341
REMARK  144  A    between atoms: _341  and  _342
REMARK  145  A    between atoms: _342  and  _343
REMARK  146  A    between atoms: _343  and  _344
REMARK  147  A    between atoms: _344  and  _345
REMARK  148  A    between atoms: _349  and  _351
REMARK  149  A    between atoms: _351  and  _352
REMARK  150  A    between atoms: _351  and  _354
REMARK  151  A    between atoms: _354  and  _355
REMARK  152  A    between atoms: _357  and  _359
REMARK  153  A    between atoms: _359  and  _360
REMARK  154  A    between atoms: _359  and  _362
REMARK  155  A    between atoms: _362  and  _363
REMARK  156  A    between atoms: _368  and  _369
REMARK  157  A    between atoms: _371  and  _373
REMARK  158  A    between atoms: _373  and  _374
REMARK  159  A    between atoms: _373  and  _376
REMARK  160  A    between atoms: _376  and  _377
REMARK  161  A    between atoms: _377  and  _378
REMARK  162  A    between atoms: _381  and  _383
REMARK  163  A    between atoms: _383  and  _384
REMARK  164  A    between atoms: _383  and  _386
REMARK  165  A    between atoms: _386  and  _387
REMARK  166  A    between atoms: _392  and  _394
REMARK  167  A    between atoms: _394  and  _395
REMARK  168  A    between atoms: _394  and  _397
REMARK  169  A    between atoms: _397  and  _398
REMARK  170  A    between atoms: _401  and  _403
REMARK  171  A    between atoms: _403  and  _404
REMARK  172  A    between atoms: _403  and  _406
REMARK  173  A    between atoms: _406  and  _407
REMARK  174  A    between atoms: _407  and  _408
REMARK  175  A    between atoms: _408  and  _409
REMARK  176  A    between atoms: _418  and  _420
REMARK  177  A    between atoms: _420  and  _421
REMARK  178  A    between atoms: _423  and  _425
REMARK  179  A    between atoms: _425  and  _426
REMARK  180  A    between atoms: _425  and  _428
REMARK  181  A    between atoms: _428  and  _429
REMARK  182  A    between atoms: _429  and  _430
REMARK  183  A    between atoms: _432  and  _434
REMARK  184  A    between atoms: _434  and  _435
REMARK  185  A    between atoms: _434  and  _437
REMARK  186  A    between atoms: _437  and  _438
REMARK  187  A    between atoms: _438  and  _439
REMARK  188  A    between atoms: _441  and  _443
REMARK  189  A    between atoms: _443  and  _444
REMARK  190  A    between atoms: _443  and  _446
REMARK  191  A    between atoms: _446  and  _447
REMARK  192  A    between atoms: _452  and  _454
REMARK  193  A    between atoms: _454  and  _455
REMARK  194  A    between atoms: _454  and  _457
REMARK  195  A    between atoms: _457  and  _458
REMARK  196  A    between atoms: _460  and  _462
REMARK  197  A    between atoms: _462  and  _463
REMARK  198  A    between atoms: _466  and  _468
REMARK  199  A    between atoms: _468  and  _469
REMARK  200  A    between atoms: _468  and  _471
REMARK  201  A    between atoms: _474  and  _476
REMARK  202  A    between atoms: _476  and  _477
REMARK  203  A    between atoms: _476  and  _479
REMARK  204  A    between atoms: _479  and  _480
REMARK  205  A    between atoms: _482  and  _484
REMARK  206  A    between atoms: _484  and  _485
REMARK  207  A    between atoms: _487  and  _489
REMARK  208  A    between atoms: _489  and  _490
REMARK  209  A    between atoms: _489  and  _492
REMARK  210  A    between atoms: _492  and  _493
REMARK  211  A    between atoms: _498  and  _500
REMARK  212  A    between atoms: _500  and  _501
REMARK  213  A    between atoms: _500  and  _503
REMARK  214  A    between atoms: _503  and  _504
REMARK  215  A    between atoms: _509  and  _510
REMARK  216  A    between atoms: _512  and  _514
REMARK  217  A    between atoms: _514  and  _515
REMARK  218  A    between atoms: _514  and  _517
REMARK  219  A    between atoms: _519  and  _521
REMARK  220  A    between atoms: _521  and  _522
REMARK  221  A    between atoms: _521  and  _524
REMARK  222  A    between atoms: _524  and  _525
REMARK  223  A    between atoms: _528  and  _530
REMARK  224  A    between atoms: _530  and  _531
REMARK  225  A    between atoms: _530  and  _533
REMARK  226  A    between atoms: _533  and  _534
REMARK  227  A    between atoms: _537  and  _539
REMARK  228  A    between atoms: _539  and  _540
REMARK  229  A    between atoms: _539  and  _542
REMARK  230  A    between atoms: _542  and  _543
REMARK  231  A    between atoms: _543  and  _544
REMARK  232  A    between atoms: _544  and  _545
REMARK  233  A    between atoms: _545  and  _546
REMARK  234  A    between atoms: _550  and  _552
REMARK  235  A    between atoms: _552  and  _553
REMARK  236  A    between atoms: _552  and  _555
REMARK  237  A    between atoms: _555  and  _556
REMARK  238  A    between atoms: _556  and  _557
REMARK  239  A    between atoms: _557  and  _558
REMARK  240  A    between atoms: _558  and  _559
REMARK  241  A    between atoms: _563  and  _565
REMARK  242  A    between atoms: _565  and  _566
REMARK  243  A    between atoms: _565  and  _568
REMARK  244  A    between atoms: _568  and  _569
REMARK  245  A    between atoms: _569  and  _570
REMARK  246  A    between atoms: _570  and  _571
REMARK  247  A    between atoms: _580  and  _582
REMARK  248  A    between atoms: _582  and  _583
REMARK  249  A    between atoms: _582  and  _585
REMARK  250  A    between atoms: _585  and  _586
REMARK  251  A    between atoms: _589  and  _591
REMARK  252  A    between atoms: _591  and  _592
REMARK  253  A    between atoms: _595  and  _597
REMARK  254  A    between atoms: _597  and  _598
REMARK  255  A    between atoms: _597  and  _600
REMARK  256  A    between atoms: _600  and  _601
REMARK  257  A    between atoms: _601  and  _602
REMARK                            x       y       z     vdW  Elec       q    Type
REMARK                         _______ _______ _______ _____ _____    ______ ____
ROOT
ATOM      1  O   HOH     1      15.158  -0.353  53.164  0.00  0.00    +0.000 OA
ENDROOT
TORSDOF 0
REMARK  Name = ../refined-set-2016/3cd5/3cd5_pocket.pdb
REMARK  257 active torsions:
REMARK  status: ('A' for Active; 'I' for Inactive)
REMARK    1  A    between atoms: _1  and  _3
REMARK    2  A    between atoms: _3  and  _4
REMARK    3  A    between atoms: _3  and  _6
REMARK    4  A    between atoms: _6  and  _7
REMARK    5  A    between atoms: _7  and  _8
REMARK    6  A    between atoms: _11  and  _13
REMARK    7  A    between atoms: _13  and  _14
REMARK    8  A    between atoms: _16  and  _18
REMARK    9  A    between atoms: _18  and  _19
REMARK   10  A    between atoms: _18  and  _21
REMARK   11  A    between atoms: _23  and  _25
REMARK   12  A    between atoms: _25  and  _26
REMARK   13  A    between atoms: _25  and  _28
REMARK   14  A    between atoms: _28  and  _29
REMARK   15  A    between atoms: _32  and  _34
REMARK   16  A    between atoms: _34  and  _35
REMARK   17  A    between atoms: _34  and  _37
REMARK   18  A    between atoms: _40  and  _42
REMARK   19  A    between atoms: _42  and  _43
REMARK   20  A    between atoms: _46  and  _48
REMARK   21  A    between atoms: _48  and  _49
REMARK   22  A    between atoms: _48  and  _51
REMARK   23  A    between atoms: _51  and  _52
REMARK   24  A    between atoms: _54  and  _56
REMARK   25  A    between atoms: _56  and  _57
REMARK   26  A    between atoms: _56  and  _59
REMARK   27  A    between atoms: _59  and  _60
REMARK   28  A    between atoms: _63  and  _65
REMARK   29  A    between atoms: _65  and  _66
REMARK   30  A    between atoms: _65  and  _68
REMARK   31  A    between atoms: _68  and  _69
REMARK   32  A    between atoms: _74  and  _76
REMARK   33  A    between atoms: _76  and  _77
REMARK   34  A    between atoms: _76  and  _79
REMARK   35  A    between atoms: _79  and  _80
REMARK   36  A    between atoms: _80  and  _81
REMARK   37  A    between atoms: _81  and  _82
REMARK   38  A    between atoms: _91  and  _93
REMARK   39  A    between atoms: _93  and  _94
REMARK   40  A    between atoms: _96  and  _98
REMARK   41  A    between atoms: _98  and  _99
REMARK   42  A    between atoms: _98  and  _101
REMARK   43  A    between atoms: _101  and  _102
REMARK   44  A    between atoms: _102  and  _103
REMARK   45  A    between atoms: _106  and  _108
REMARK   46  A    between atoms: _108  and  _109
REMARK   47  A    between atoms: _108  and  _111
REMARK   48  A    between atoms: _114  and  _116
REMARK   49  A    between atoms: _116  and  _117
REMARK   50  A    between atoms: _116  and  _119
REMARK   51  A    between atoms: _119  and  _120
REMARK   52  A    between atoms: _123  and  _125
REMARK   53  A    between atoms: _125  and  _126
REMARK   54  A    between atoms: _125  and  _128
REMARK   55  A    between atoms: _128  and  _129
REMARK   56  A    between atoms: _129  and  _130
REMARK   57  A    between atoms: _130  and  _131
REMARK   58  A    between atoms: _131  and  _132
REMARK   59  A    between atoms: _136  and  _138
REMARK   60  A    between atoms: _138  and  _139
REMARK   61  A    between atoms: _138  and  _141
REMARK   62  A    between atoms: _141  and  _142
REMARK   63  A    between atoms: _142  and  _143
REMARK   64  A    between atoms: _143  and  _144
REMARK   65  A    between atoms: _144  and  _145
REMARK   66  A    between atoms: _149  and  _151
REMARK   67  A    between atoms: _151  and  _152
REMARK   68  A    between atoms: _151  and  _154
REMARK   69  A    between atoms: _154  and  _155
REMARK   70  A    between atoms: _160  and  _162
REMARK   71  A    between atoms: _162  and  _163
REMARK   72  A    between atoms: _162  and  _165
REMARK   73  A    between atoms: _165  and  _166
REMARK   74  A    between atoms: _171  and  _173
REMARK   75  A    between atoms: _173  and  _174
REMARK   76  A    between atoms: _177  and  _179
REMARK   77  A    between atoms: _179  and  _180
REMARK   78  A    between atoms: _179  and  _182
REMARK   79  A    between atoms: _182  and  _183
REMARK   80  A    between atoms: _188  and  _190
REMARK   81  A    between atoms: _190  and  _191
REMARK   82  A    between atoms: _194  and  _196
REMARK   83  A    between atoms: _196  and  _197
REMARK   84  A    between atoms: _200  and  _202
REMARK   85  A    between atoms: _202  and  _203
REMARK   86  A    between atoms: _202  and  _205
REMARK   87  A    between atoms: _205  and  _206
REMARK   88  A    between atoms: _211  and  _213
REMARK   89  A    between atoms: _213  and  _214
REMARK   90  A    between atoms: _213  and  _216
REMARK   91  A    between atoms: _216  and  _217
REMARK   92  A    between atoms: _220  and  _222
REMARK   93  A    between atoms: _222  and  _223
REMARK   94  A    between atoms: _225  and  _227
REMARK   95  A    between atoms: _227  and  _228
REMARK   96  A    between atoms: _227  and  _230
REMARK   97  A    between atoms: _230  and  _231
REMARK   98  A    between atoms: _231  and  _232
REMARK   99  A    between atoms: _235  and  _237
REMARK  100  A    between atoms: _237  and  _238
REMARK  101  A    between atoms: _237  and  _240
REMARK  102  A    between atoms: _240  and  _241
REMARK  103  A    between atoms: _244  and  _246
REMARK  104  A    between atoms: _246  and  _247
REMARK  105  A    between atoms: _246  and  _249
REMARK  106  A    between atoms: _249  and  _250
REMARK  107  A    between atoms: _252  and  _254
REMARK  108  A    between atoms: _254  and  _255
REMARK  109  A    between atoms: _254  and  _257
REMARK  110  A    between atoms: _257  and  _258
REMARK  111  A    between atoms: _261  and  _263
REMARK  112  A    between atoms: _263  and  _264
REMARK  113  A    between atoms: _263  and  _266
REMARK  114  A    between atoms: _266  and  _267
REMARK  115  A    between atoms: _267  and  _268
REMARK  116  A    between atoms: _270  and  _272
REMARK  117  A    between atoms: _272  and  _273
REMARK  118  A    between atoms: _276  and  _278
REMARK  119  A    between atoms: _278  and  _279
REMARK  120  A    between atoms: _282  and  _284
REMARK  121  A    between atoms: _284  and  _285
REMARK  122  A    between atoms: _284  and  _287
REMARK  123  A    between atoms: _287  and  _288
REMARK  124  A    between atoms: _291  and  _293
REMARK  125  A    between atoms: _293  and  _294
REMARK  126  A    between atoms: _297  and  _299
REMARK  127  A    between atoms: _299  and  _300
REMARK  128  A    between atoms: _303  and  _305
REMARK  129  A    between atoms: _305  and  _306
REMARK  130  A    between atoms: _308  and  _310
REMARK  131  A    between atoms: _310  and  _311
REMARK  132  A    between atoms: _310  and  _313
REMARK  133  A    between atoms: _313  and  _314
REMARK  134  A    between atoms: _319  and  _321
REMARK  135  A    between atoms: _321  and  _322
REMARK  136  A    between atoms: _321  and  _324
REMARK  137  A    between atoms: _324  and  _325
REMARK  138  A    between atoms: _328  and  _330
REMARK  139  A    between atoms: _330  and  _331
REMARK  140  A    between atoms: _330  and  _333
REMARK  141  A    between atoms: _336  and  _338
REMARK  142  A    between atoms: _338  and  _339
REMARK  143  A    between atoms: _338  and  _341
REMARK  144  A    between atoms: _341  and  _342
REMARK  145  A    between atoms: _342  and  _343
REMARK  146  A    between atoms: _343  and  _344
REMARK  147  A    between atoms: _344  and  _345
REMARK  148  A    between atoms: _349  and  _351
REMARK  149  A    between atoms: _351  and  _352
REMARK  150  A    between atoms: _351  and  _354
REMARK  151  A    between atoms: _354  and  _355
REMARK  152  A    between atoms: _357  and  _359
REMARK  153  A    between atoms: _359  and  _360
REMARK  154  A    between atoms: _359  and  _362
REMARK  155  A    between atoms: _362  and  _363
REMARK  156  A    between atoms: _368  and  _369
REMARK  157  A    between atoms: _371  and  _373
REMARK  158  A    between atoms: _373  and  _374
REMARK  159  A    between atoms: _373  and  _376
REMARK  160  A    between atoms: _376  and  _377
REMARK  161  A    between atoms: _377  and  _378
REMARK  162  A    between atoms: _381  and  _383
REMARK  163  A    between atoms: _383  and  _384
REMARK  164  A    between atoms: _383  and  _386
REMARK  165  A    between atoms: _386  and  _387
REMARK  166  A    between atoms: _392  and  _394
REMARK  167  A    between atoms: _394  and  _395
REMARK  168  A    between atoms: _394  and  _397
REMARK  169  A    between atoms: _397  and  _398
REMARK  170  A    between atoms: _401  and  _403
REMARK  171  A    between atoms: _403  and  _404
REMARK  172  A    between atoms: _403  and  _406
REMARK  173  A    between atoms: _406  and  _407
REMARK  174  A    between atoms: _407  and  _408
REMARK  175  A    between atoms: _408  and  _409
REMARK  176  A    between atoms: _418  and  _420
REMARK  177  A    between atoms: _420  and  _421
REMARK  178  A    between atoms: _423  and  _425
REMARK  179  A    between atoms: _425  and  _426
REMARK  180  A    between atoms: _425  and  _428
REMARK  181  A    between atoms: _428  and  _429
REMARK  182  A    between atoms: _429  and  _430
REMARK  183  A    between atoms: _432  and  _434
REMARK  184  A    between atoms: _434  and  _435
REMARK  185  A    between atoms: _434  and  _437
REMARK  186  A    between atoms: _437  and  _438
REMARK  187  A    between atoms: _438  and  _439
REMARK  188  A    between atoms: _441  and  _443
REMARK  189  A    between atoms: _443  and  _444
REMARK  190  A    between atoms: _443  and  _446
REMARK  191  A    between atoms: _446  and  _447
REMARK  192  A    between atoms: _452  and  _454
REMARK  193  A    between atoms: _454  and  _455
REMARK  194  A    between atoms: _454  and  _457
REMARK  195  A    between atoms: _457  and  _458
REMARK  196  A    between atoms: _460  and  _462
REMARK  197  A    between atoms: _462  and  _463
REMARK  198  A    between atoms: _466  and  _468
REMARK  199  A    between atoms: _468  and  _469
REMARK  200  A    between atoms: _468  and  _471
REMARK  201  A    between atoms: _474  and  _476
REMARK  202  A    between atoms: _476  and  _477
REMARK  203  A    between atoms: _476  and  _479
REMARK  204  A    between atoms: _479  and  _480
REMARK  205  A    between atoms: _482  and  _484
REMARK  206  A    between atoms: _484  and  _485
REMARK  207  A    between atoms: _487  and  _489
REMARK  208  A    between atoms: _489  and  _490
REMARK  209  A    between atoms: _489  and  _492
REMARK  210  A    between atoms: _492  and  _493
REMARK  211  A    between atoms: _498  and  _500
REMARK  212  A    between atoms: _500  and  _501
REMARK  213  A    between atoms: _500  and  _503
REMARK  214  A    between atoms: _503  and  _504
REMARK  215  A    between atoms: _509  and  _510
REMARK  216  A    between atoms: _512  and  _514
REMARK  217  A    between atoms: _514  and  _515
REMARK  218  A    between atoms: _514  and  _517
REMARK  219  A    between atoms: _519  and  _521
REMARK  220  A    between atoms: _521  and  _522
REMARK  221  A    between atoms: _521  and  _524
REMARK  222  A    between atoms: _524  and  _525
REMARK  223  A    between atoms: _528  and  _530
REMARK  224  A    between atoms: _530  and  _531
REMARK  225  A    between atoms: _530  and  _533
REMARK  226  A    between atoms: _533  and  _534
REMARK  227  A    between atoms: _537  and  _539
REMARK  228  A    between atoms: _539  and  _540
REMARK  229  A    between atoms: _539  and  _542
REMARK  230  A    between atoms: _542  and  _543
REMARK  231  A    between atoms: _543  and  _544
REMARK  232  A    between atoms: _544  and  _545
REMARK  233  A    between atoms: _545  and  _546
REMARK  234  A    between atoms: _550  and  _552
REMARK  235  A    between atoms: _552  and  _553
REMARK  236  A    between atoms: _552  and  _555
REMARK  237  A    between atoms: _555  and  _556
REMARK  238  A    between atoms: _556  and  _557
REMARK  239  A    between atoms: _557  and  _558
REMARK  240  A    between atoms: _558  and  _559
REMARK  241  A    between atoms: _563  and  _565
REMARK  242  A    between atoms: _565  and  _566
REMARK  243  A    between atoms: _565  and  _568
REMARK  244  A    between atoms: _568  and  _569
REMARK  245  A    between atoms: _569  and  _570
REMARK  246  A    between atoms: _570  and  _571
REMARK  247  A    between atoms: _580  and  _582
REMARK  248  A    between atoms: _582  and  _583
REMARK  249  A    between atoms: _582  and  _585
REMARK  250  A    between atoms: _585  and  _586
REMARK  251  A    between atoms: _589  and  _591
REMARK  252  A    between atoms: _591  and  _592
REMARK  253  A    between atoms: _595  and  _597
REMARK  254  A    between atoms: _597  and  _598
REMARK  255  A    between atoms: _597  and  _600
REMARK  256  A    between atoms: _600  and  _601
REMARK  257  A    between atoms: _601  and  _602
REMARK                            x       y       z     vdW  Elec       q    Type
REMARK                         _______ _______ _______ _____ _____    ______ ____
ROOT
ATOM      1  O   HOH     1      17.659  -2.697  46.406  0.00  0.00    +0.000 OA
ENDROOT
TORSDOF 0
REMARK  Name = ../refined-set-2016/3cd5/3cd5_pocket.pdb
REMARK  257 active torsions:
REMARK  status: ('A' for Active; 'I' for Inactive)
REMARK    1  A    between atoms: _1  and  _3
REMARK    2  A    between atoms: _3  and  _4
REMARK    3  A    between atoms: _3  and  _6
REMARK    4  A    between atoms: _6  and  _7
REMARK    5  A    between atoms: _7  and  _8
REMARK    6  A    between atoms: _11  and  _13
REMARK    7  A    between atoms: _13  and  _14
REMARK    8  A    between atoms: _16  and  _18
REMARK    9  A    between atoms: _18  and  _19
REMARK   10  A    between atoms: _18  and  _21
REMARK   11  A    between atoms: _23  and  _25
REMARK   12  A    between atoms: _25  and  _26
REMARK   13  A    between atoms: _25  and  _28
REMARK   14  A    between atoms: _28  and  _29
REMARK   15  A    between atoms: _32  and  _34
REMARK   16  A    between atoms: _34  and  _35
REMARK   17  A    between atoms: _34  and  _37
REMARK   18  A    between atoms: _40  and  _42
REMARK   19  A    between atoms: _42  and  _43
REMARK   20  A    between atoms: _46  and  _48
REMARK   21  A    between atoms: _48  and  _49
REMARK   22  A    between atoms: _48  and  _51
REMARK   23  A    between atoms: _51  and  _52
REMARK   24  A    between atoms: _54  and  _56
REMARK   25  A    between atoms: _56  and  _57
REMARK   26  A    between atoms: _56  and  _59
REMARK   27  A    between atoms: _59  and  _60
REMARK   28  A    between atoms: _63  and  _65
REMARK   29  A    between atoms: _65  and  _66
REMARK   30  A    between atoms: _65  and  _68
REMARK   31  A    between atoms: _68  and  _69
REMARK   32  A    between atoms: _74  and  _76
REMARK   33  A    between atoms: _76  and  _77
REMARK   34  A    between atoms: _76  and  _79
REMARK   35  A    between atoms: _79  and  _80
REMARK   36  A    between atoms: _80  and  _81
REMARK   37  A    between atoms: _81  and  _82
REMARK   38  A    between atoms: _91  and  _93
REMARK   39  A    between atoms: _93  and  _94
REMARK   40  A    between atoms: _96  and  _98
REMARK   41  A    between atoms: _98  and  _99
REMARK   42  A    between atoms: _98  and  _101
REMARK   43  A    between atoms: _101  and  _102
REMARK   44  A    between atoms: _102  and  _103
REMARK   45  A    between atoms: _106  and  _108
REMARK   46  A    between atoms: _108  and  _109
REMARK   47  A    between atoms: _108  and  _111
REMARK   48  A    between atoms: _114  and  _116
REMARK   49  A    between atoms: _116  and  _117
REMARK   50  A    between atoms: _116  and  _119
REMARK   51  A    between atoms: _119  and  _120
REMARK   52  A    between atoms: _123  and  _125
REMARK   53  A    between atoms: _125  and  _126
REMARK   54  A    between atoms: _125  and  _128
REMARK   55  A    between atoms: _128  and  _129
REMARK   56  A    between atoms: _129  and  _130
REMARK   57  A    between atoms: _130  and  _131
REMARK   58  A    between atoms: _131  and  _132
REMARK   59  A    between atoms: _136  and  _138
REMARK   60  A    between atoms: _138  and  _139
REMARK   61  A    between atoms: _138  and  _141
REMARK   62  A    between atoms: _141  and  _142
REMARK   63  A    between atoms: _142  and  _143
REMARK   64  A    between atoms: _143  and  _144
REMARK   65  A    between atoms: _144  and  _145
REMARK   66  A    between atoms: _149  and  _151
REMARK   67  A    between atoms: _151  and  _152
REMARK   68  A    between atoms: _151  and  _154
REMARK   69  A    between atoms: _154  and  _155
REMARK   70  A    between atoms: _160  and  _162
REMARK   71  A    between atoms: _162  and  _163
REMARK   72  A    between atoms: _162  and  _165
REMARK   73  A    between atoms: _165  and  _166
REMARK   74  A    between atoms: _171  and  _173
REMARK   75  A    between atoms: _173  and  _174
REMARK   76  A    between atoms: _177  and  _179
REMARK   77  A    between atoms: _179  and  _180
REMARK   78  A    between atoms: _179  and  _182
REMARK   79  A    between atoms: _182  and  _183
REMARK   80  A    between atoms: _188  and  _190
REMARK   81  A    between atoms: _190  and  _191
REMARK   82  A    between atoms: _194  and  _196
REMARK   83  A    between atoms: _196  and  _197
REMARK   84  A    between atoms: _200  and  _202
REMARK   85  A    between atoms: _202  and  _203
REMARK   86  A    between atoms: _202  and  _205
REMARK   87  A    between atoms: _205  and  _206
REMARK   88  A    between atoms: _211  and  _213
REMARK   89  A    between atoms: _213  and  _214
REMARK   90  A    between atoms: _213  and  _216
REMARK   91  A    between atoms: _216  and  _217
REMARK   92  A    between atoms: _220  and  _222
REMARK   93  A    between atoms: _222  and  _223
REMARK   94  A    between atoms: _225  and  _227
REMARK   95  A    between atoms: _227  and  _228
REMARK   96  A    between atoms: _227  and  _230
REMARK   97  A    between atoms: _230  and  _231
REMARK   98  A    between atoms: _231  and  _232
REMARK   99  A    between atoms: _235  and  _237
REMARK  100  A    between atoms: _237  and  _238
REMARK  101  A    between atoms: _237  and  _240
REMARK  102  A    between atoms: _240  and  _241
REMARK  103  A    between atoms: _244  and  _246
REMARK  104  A    between atoms: _246  and  _247
REMARK  105  A    between atoms: _246  and  _249
REMARK  106  A    between atoms: _249  and  _250
REMARK  107  A    between atoms: _252  and  _254
REMARK  108  A    between atoms: _254  and  _255
REMARK  109  A    between atoms: _254  and  _257
REMARK  110  A    between atoms: _257  and  _258
REMARK  111  A    between atoms: _261  and  _263
REMARK  112  A    between atoms: _263  and  _264
REMARK  113  A    between atoms: _263  and  _266
REMARK  114  A    between atoms: _266  and  _267
REMARK  115  A    between atoms: _267  and  _268
REMARK  116  A    between atoms: _270  and  _272
REMARK  117  A    between atoms: _272  and  _273
REMARK  118  A    between atoms: _276  and  _278
REMARK  119  A    between atoms: _278  and  _279
REMARK  120  A    between atoms: _282  and  _284
REMARK  121  A    between atoms: _284  and  _285
REMARK  122  A    between atoms: _284  and  _287
REMARK  123  A    between atoms: _287  and  _288
REMARK  124  A    between atoms: _291  and  _293
REMARK  125  A    between atoms: _293  and  _294
REMARK  126  A    between atoms: _297  and  _299
REMARK  127  A    between atoms: _299  and  _300
REMARK  128  A    between atoms: _303  and  _305
REMARK  129  A    between atoms: _305  and  _306
REMARK  130  A    between atoms: _308  and  _310
REMARK  131  A    between atoms: _310  and  _311
REMARK  132  A    between atoms: _310  and  _313
REMARK  133  A    between atoms: _313  and  _314
REMARK  134  A    between atoms: _319  and  _321
REMARK  135  A    between atoms: _321  and  _322
REMARK  136  A    between atoms: _321  and  _324
REMARK  137  A    between atoms: _324  and  _325
REMARK  138  A    between atoms: _328  and  _330
REMARK  139  A    between atoms: _330  and  _331
REMARK  140  A    between atoms: _330  and  _333
REMARK  141  A    between atoms: _336  and  _338
REMARK  142  A    between atoms: _338  and  _339
REMARK  143  A    between atoms: _338  and  _341
REMARK  144  A    between atoms: _341  and  _342
REMARK  145  A    between atoms: _342  and  _343
REMARK  146  A    between atoms: _343  and  _344
REMARK  147  A    between atoms: _344  and  _345
REMARK  148  A    between atoms: _349  and  _351
REMARK  149  A    between atoms: _351  and  _352
REMARK  150  A    between atoms: _351  and  _354
REMARK  151  A    between atoms: _354  and  _355
REMARK  152  A    between atoms: _357  and  _359
REMARK  153  A    between atoms: _359  and  _360
REMARK  154  A    between atoms: _359  and  _362
REMARK  155  A    between atoms: _362  and  _363
REMARK  156  A    between atoms: _368  and  _369
REMARK  157  A    between atoms: _371  and  _373
REMARK  158  A    between atoms: _373  and  _374
REMARK  159  A    between atoms: _373  and  _376
REMARK  160  A    between atoms: _376  and  _377
REMARK  161  A    between atoms: _377  and  _378
REMARK  162  A    between atoms: _381  and  _383
REMARK  163  A    between atoms: _383  and  _384
REMARK  164  A    between atoms: _383  and  _386
REMARK  165  A    between atoms: _386  and  _387
REMARK  166  A    between atoms: _392  and  _394
REMARK  167  A    between atoms: _394  and  _395
REMARK  168  A    between atoms: _394  and  _397
REMARK  169  A    between atoms: _397  and  _398
REMARK  170  A    between atoms: _401  and  _403
REMARK  171  A    between atoms: _403  and  _404
REMARK  172  A    between atoms: _403  and  _406
REMARK  173  A    between atoms: _406  and  _407
REMARK  174  A    between atoms: _407  and  _408
REMARK  175  A    between atoms: _408  and  _409
REMARK  176  A    between atoms: _418  and  _420
REMARK  177  A    between atoms: _420  and  _421
REMARK  178  A    between atoms: _423  and  _425
REMARK  179  A    between atoms: _425  and  _426
REMARK  180  A    between atoms: _425  and  _428
REMARK  181  A    between atoms: _428  and  _429
REMARK  182  A    between atoms: _429  and  _430
REMARK  183  A    between atoms: _432  and  _434
REMARK  184  A    between atoms: _434  and  _435
REMARK  185  A    between atoms: _434  and  _437
REMARK  186  A    between atoms: _437  and  _438
REMARK  187  A    between atoms: _438  and  _439
REMARK  188  A    between atoms: _441  and  _443
REMARK  189  A    between atoms: _443  and  _444
REMARK  190  A    between atoms: _443  and  _446
REMARK  191  A    between atoms: _446  and  _447
REMARK  192  A    between atoms: _452  and  _454
REMARK  193  A    between atoms: _454  and  _455
REMARK  194  A    between atoms: _454  and  _457
REMARK  195  A    between atoms: _457  and  _458
REMARK  196  A    between atoms: _460  and  _462
REMARK  197  A    between atoms: _462  and  _463
REMARK  198  A    between atoms: _466  and  _468
REMARK  199  A    between atoms: _468  and  _469
REMARK  200  A    between atoms: _468  and  _471
REMARK  201  A    between atoms: _474  and  _476
REMARK  202  A    between atoms: _476  and  _477
REMARK  203  A    between atoms: _476  and  _479
REMARK  204  A    between atoms: _479  and  _480
REMARK  205  A    between atoms: _482  and  _484
REMARK  206  A    between atoms: _484  and  _485
REMARK  207  A    between atoms: _487  and  _489
REMARK  208  A    between atoms: _489  and  _490
REMARK  209  A    between atoms: _489  and  _492
REMARK  210  A    between atoms: _492  and  _493
REMARK  211  A    between atoms: _498  and  _500
REMARK  212  A    between atoms: _500  and  _501
REMARK  213  A    between atoms: _500  and  _503
REMARK  214  A    between atoms: _503  and  _504
REMARK  215  A    between atoms: _509  and  _510
REMARK  216  A    between atoms: _512  and  _514
REMARK  217  A    between atoms: _514  and  _515
REMARK  218  A    between atoms: _514  and  _517
REMARK  219  A    between atoms: _519  and  _521
REMARK  220  A    between atoms: _521  and  _522
REMARK  221  A    between atoms: _521  and  _524
REMARK  222  A    between atoms: _524  and  _525
REMARK  223  A    between atoms: _528  and  _530
REMARK  224  A    between atoms: _530  and  _531
REMARK  225  A    between atoms: _530  and  _533
REMARK  226  A    between atoms: _533  and  _534
REMARK  227  A    between atoms: _537  and  _539
REMARK  228  A    between atoms: _539  and  _540
REMARK  229  A    between atoms: _539  and  _542
REMARK  230  A    between atoms: _542  and  _543
REMARK  231  A    between atoms: _543  and  _544
REMARK  232  A    between atoms: _544  and  _545
REMARK  233  A    between atoms: _545  and  _546
REMARK  234  A    between atoms: _550  and  _552
REMARK  235  A    between atoms: _552  and  _553
REMARK  236  A    between atoms: _552  and  _555
REMARK  237  A    between atoms: _555  and  _556
REMARK  238  A    between atoms: _556  and  _557
REMARK  239  A    between atoms: _557  and  _558
REMARK  240  A    between atoms: _558  and  _559
REMARK  241  A    between atoms: _563  and  _565
REMARK  242  A    between atoms: _565  and  _566
REMARK  243  A    between atoms: _565  and  _568
REMARK  244  A    between atoms: _568  and  _569
REMARK  245  A    between atoms: _569  and  _570
REMARK  246  A    between atoms: _570  and  _571
REMARK  247  A    between atoms: _580  and  _582
REMARK  248  A    between atoms: _582  and  _583
REMARK  249  A    between atoms: _582  and  _585
REMARK  250  A    between atoms: _585  and  _586
REMARK  251  A    between atoms: _589  and  _591
REMARK  252  A    between atoms: _591  and  _592
REMARK  253  A    between atoms: _595  and  _597
REMARK  254  A    between atoms: _597  and  _598
REMARK  255  A    between atoms: _597  and  _600
REMARK  256  A    between atoms: _600  and  _601
REMARK  257  A    between atoms: _601  and  _602
REMARK                            x       y       z     vdW  Elec       q    Type
REMARK                         _______ _______ _______ _____ _____    ______ ____
ROOT
ATOM      1  O   HOH     1       6.124  11.627  44.520  0.00  0.00    +0.000 OA
ENDROOT
TORSDOF 0
REMARK  Name = ../refined-set-2016/3cd5/3cd5_pocket.pdb
REMARK  257 active torsions:
REMARK  status: ('A' for Active; 'I' for Inactive)
REMARK    1  A    between atoms: _1  and  _3
REMARK    2  A    between atoms: _3  and  _4
REMARK    3  A    between atoms: _3  and  _6
REMARK    4  A    between atoms: _6  and  _7
REMARK    5  A    between atoms: _7  and  _8
REMARK    6  A    between atoms: _11  and  _13
REMARK    7  A    between atoms: _13  and  _14
REMARK    8  A    between atoms: _16  and  _18
REMARK    9  A    between atoms: _18  and  _19
REMARK   10  A    between atoms: _18  and  _21
REMARK   11  A    between atoms: _23  and  _25
REMARK   12  A    between atoms: _25  and  _26
REMARK   13  A    between atoms: _25  and  _28
REMARK   14  A    between atoms: _28  and  _29
REMARK   15  A    between atoms: _32  and  _34
REMARK   16  A    between atoms: _34  and  _35
REMARK   17  A    between atoms: _34  and  _37
REMARK   18  A    between atoms: _40  and  _42
REMARK   19  A    between atoms: _42  and  _43
REMARK   20  A    between atoms: _46  and  _48
REMARK   21  A    between atoms: _48  and  _49
REMARK   22  A    between atoms: _48  and  _51
REMARK   23  A    between atoms: _51  and  _52
REMARK   24  A    between atoms: _54  and  _56
REMARK   25  A    between atoms: _56  and  _57
REMARK   26  A    between atoms: _56  and  _59
REMARK   27  A    between atoms: _59  and  _60
REMARK   28  A    between atoms: _63  and  _65
REMARK   29  A    between atoms: _65  and  _66
REMARK   30  A    between atoms: _65  and  _68
REMARK   31  A    between atoms: _68  and  _69
REMARK   32  A    between atoms: _74  and  _76
REMARK   33  A    between atoms: _76  and  _77
REMARK   34  A    between atoms: _76  and  _79
REMARK   35  A    between atoms: _79  and  _80
REMARK   36  A    between atoms: _80  and  _81
REMARK   37  A    between atoms: _81  and  _82
REMARK   38  A    between atoms: _91  and  _93
REMARK   39  A    between atoms: _93  and  _94
REMARK   40  A    between atoms: _96  and  _98
REMARK   41  A    between atoms: _98  and  _99
REMARK   42  A    between atoms: _98  and  _101
REMARK   43  A    between atoms: _101  and  _102
REMARK   44  A    between atoms: _102  and  _103
REMARK   45  A    between atoms: _106  and  _108
REMARK   46  A    between atoms: _108  and  _109
REMARK   47  A    between atoms: _108  and  _111
REMARK   48  A    between atoms: _114  and  _116
REMARK   49  A    between atoms: _116  and  _117
REMARK   50  A    between atoms: _116  and  _119
REMARK   51  A    between atoms: _119  and  _120
REMARK   52  A    between atoms: _123  and  _125
REMARK   53  A    between atoms: _125  and  _126
REMARK   54  A    between atoms: _125  and  _128
REMARK   55  A    between atoms: _128  and  _129
REMARK   56  A    between atoms: _129  and  _130
REMARK   57  A    between atoms: _130  and  _131
REMARK   58  A    between atoms: _131  and  _132
REMARK   59  A    between atoms: _136  and  _138
REMARK   60  A    between atoms: _138  and  _139
REMARK   61  A    between atoms: _138  and  _141
REMARK   62  A    between atoms: _141  and  _142
REMARK   63  A    between atoms: _142  and  _143
REMARK   64  A    between atoms: _143  and  _144
REMARK   65  A    between atoms: _144  and  _145
REMARK   66  A    between atoms: _149  and  _151
REMARK   67  A    between atoms: _151  and  _152
REMARK   68  A    between atoms: _151  and  _154
REMARK   69  A    between atoms: _154  and  _155
REMARK   70  A    between atoms: _160  and  _162
REMARK   71  A    between atoms: _162  and  _163
REMARK   72  A    between atoms: _162  and  _165
REMARK   73  A    between atoms: _165  and  _166
REMARK   74  A    between atoms: _171  and  _173
REMARK   75  A    between atoms: _173  and  _174
REMARK   76  A    between atoms: _177  and  _179
REMARK   77  A    between atoms: _179  and  _180
REMARK   78  A    between atoms: _179  and  _182
REMARK   79  A    between atoms: _182  and  _183
REMARK   80  A    between atoms: _188  and  _190
REMARK   81  A    between atoms: _190  and  _191
REMARK   82  A    between atoms: _194  and  _196
REMARK   83  A    between atoms: _196  and  _197
REMARK   84  A    between atoms: _200  and  _202
REMARK   85  A    between atoms: _202  and  _203
REMARK   86  A    between atoms: _202  and  _205
REMARK   87  A    between atoms: _205  and  _206
REMARK   88  A    between atoms: _211  and  _213
REMARK   89  A    between atoms: _213  and  _214
REMARK   90  A    between atoms: _213  and  _216
REMARK   91  A    between atoms: _216  and  _217
REMARK   92  A    between atoms: _220  and  _222
REMARK   93  A    between atoms: _222  and  _223
REMARK   94  A    between atoms: _225  and  _227
REMARK   95  A    between atoms: _227  and  _228
REMARK   96  A    between atoms: _227  and  _230
REMARK   97  A    between atoms: _230  and  _231
REMARK   98  A    between atoms: _231  and  _232
REMARK   99  A    between atoms: _235  and  _237
REMARK  100  A    between atoms: _237  and  _238
REMARK  101  A    between atoms: _237  and  _240
REMARK  102  A    between atoms: _240  and  _241
REMARK  103  A    between atoms: _244  and  _246
REMARK  104  A    between atoms: _246  and  _247
REMARK  105  A    between atoms: _246  and  _249
REMARK  106  A    between atoms: _249  and  _250
REMARK  107  A    between atoms: _252  and  _254
REMARK  108  A    between atoms: _254  and  _255
REMARK  109  A    between atoms: _254  and  _257
REMARK  110  A    between atoms: _257  and  _258
REMARK  111  A    between atoms: _261  and  _263
REMARK  112  A    between atoms: _263  and  _264
REMARK  113  A    between atoms: _263  and  _266
REMARK  114  A    between atoms: _266  and  _267
REMARK  115  A    between atoms: _267  and  _268
REMARK  116  A    between atoms: _270  and  _272
REMARK  117  A    between atoms: _272  and  _273
REMARK  118  A    between atoms: _276  and  _278
REMARK  119  A    between atoms: _278  and  _279
REMARK  120  A    between atoms: _282  and  _284
REMARK  121  A    between atoms: _284  and  _285
REMARK  122  A    between atoms: _284  and  _287
REMARK  123  A    between atoms: _287  and  _288
REMARK  124  A    between atoms: _291  and  _293
REMARK  125  A    between atoms: _293  and  _294
REMARK  126  A    between atoms: _297  and  _299
REMARK  127  A    between atoms: _299  and  _300
REMARK  128  A    between atoms: _303  and  _305
REMARK  129  A    between atoms: _305  and  _306
REMARK  130  A    between atoms: _308  and  _310
REMARK  131  A    between atoms: _310  and  _311
REMARK  132  A    between atoms: _310  and  _313
REMARK  133  A    between atoms: _313  and  _314
REMARK  134  A    between atoms: _319  and  _321
REMARK  135  A    between atoms: _321  and  _322
REMARK  136  A    between atoms: _321  and  _324
REMARK  137  A    between atoms: _324  and  _325
REMARK  138  A    between atoms: _328  and  _330
REMARK  139  A    between atoms: _330  and  _331
REMARK  140  A    between atoms: _330  and  _333
REMARK  141  A    between atoms: _336  and  _338
REMARK  142  A    between atoms: _338  and  _339
REMARK  143  A    between atoms: _338  and  _341
REMARK  144  A    between atoms: _341  and  _342
REMARK  145  A    between atoms: _342  and  _343
REMARK  146  A    between atoms: _343  and  _344
REMARK  147  A    between atoms: _344  and  _345
REMARK  148  A    between atoms: _349  and  _351
REMARK  149  A    between atoms: _351  and  _352
REMARK  150  A    between atoms: _351  and  _354
REMARK  151  A    between atoms: _354  and  _355
REMARK  152  A    between atoms: _357  and  _359
REMARK  153  A    between atoms: _359  and  _360
REMARK  154  A    between atoms: _359  and  _362
REMARK  155  A    between atoms: _362  and  _363
REMARK  156  A    between atoms: _368  and  _369
REMARK  157  A    between atoms: _371  and  _373
REMARK  158  A    between atoms: _373  and  _374
REMARK  159  A    between atoms: _373  and  _376
REMARK  160  A    between atoms: _376  and  _377
REMARK  161  A    between atoms: _377  and  _378
REMARK  162  A    between atoms: _381  and  _383
REMARK  163  A    between atoms: _383  and  _384
REMARK  164  A    between atoms: _383  and  _386
REMARK  165  A    between atoms: _386  and  _387
REMARK  166  A    between atoms: _392  and  _394
REMARK  167  A    between atoms: _394  and  _395
REMARK  168  A    between atoms: _394  and  _397
REMARK  169  A    between atoms: _397  and  _398
REMARK  170  A    between atoms: _401  and  _403
REMARK  171  A    between atoms: _403  and  _404
REMARK  172  A    between atoms: _403  and  _406
REMARK  173  A    between atoms: _406  and  _407
REMARK  174  A    between atoms: _407  and  _408
REMARK  175  A    between atoms: _408  and  _409
REMARK  176  A    between atoms: _418  and  _420
REMARK  177  A    between atoms: _420  and  _421
REMARK  178  A    between atoms: _423  and  _425
REMARK  179  A    between atoms: _425  and  _426
REMARK  180  A    between atoms: _425  and  _428
REMARK  181  A    between atoms: _428  and  _429
REMARK  182  A    between atoms: _429  and  _430
REMARK  183  A    between atoms: _432  and  _434
REMARK  184  A    between atoms: _434  and  _435
REMARK  185  A    between atoms: _434  and  _437
REMARK  186  A    between atoms: _437  and  _438
REMARK  187  A    between atoms: _438  and  _439
REMARK  188  A    between atoms: _441  and  _443
REMARK  189  A    between atoms: _443  and  _444
REMARK  190  A    between atoms: _443  and  _446
REMARK  191  A    between atoms: _446  and  _447
REMARK  192  A    between atoms: _452  and  _454
REMARK  193  A    between atoms: _454  and  _455
REMARK  194  A    between atoms: _454  and  _457
REMARK  195  A    between atoms: _457  and  _458
REMARK  196  A    between atoms: _460  and  _462
REMARK  197  A    between atoms: _462  and  _463
REMARK  198  A    between atoms: _466  and  _468
REMARK  199  A    between atoms: _468  and  _469
REMARK  200  A    between atoms: _468  and  _471
REMARK  201  A    between atoms: _474  and  _476
REMARK  202  A    between atoms: _476  and  _477
REMARK  203  A    between atoms: _476  and  _479
REMARK  204  A    between atoms: _479  and  _480
REMARK  205  A    between atoms: _482  and  _484
REMARK  206  A    between atoms: _484  and  _485
REMARK  207  A    between atoms: _487  and  _489
REMARK  208  A    between atoms: _489  and  _490
REMARK  209  A    between atoms: _489  and  _492
REMARK  210  A    between atoms: _492  and  _493
REMARK  211  A    between atoms: _498  and  _500
REMARK  212  A    between atoms: _500  and  _501
REMARK  213  A    between atoms: _500  and  _503
REMARK  214  A    between atoms: _503  and  _504
REMARK  215  A    between atoms: _509  and  _510
REMARK  216  A    between atoms: _512  and  _514
REMARK  217  A    between atoms: _514  and  _515
REMARK  218  A    between atoms: _514  and  _517
REMARK  219  A    between atoms: _519  and  _521
REMARK  220  A    between atoms: _521  and  _522
REMARK  221  A    between atoms: _521  and  _524
REMARK  222  A    between atoms: _524  and  _525
REMARK  223  A    between atoms: _528  and  _530
REMARK  224  A    between atoms: _530  and  _531
REMARK  225  A    between atoms: _530  and  _533
REMARK  226  A    between atoms: _533  and  _534
REMARK  227  A    between atoms: _537  and  _539
REMARK  228  A    between atoms: _539  and  _540
REMARK  229  A    between atoms: _539  and  _542
REMARK  230  A    between atoms: _542  and  _543
REMARK  231  A    between atoms: _543  and  _544
REMARK  232  A    between atoms: _544  and  _545
REMARK  233  A    between atoms: _545  and  _546
REMARK  234  A    between atoms: _550  and  _552
REMARK  235  A    between atoms: _552  and  _553
REMARK  236  A    between atoms: _552  and  _555
REMARK  237  A    between atoms: _555  and  _556
REMARK  238  A    between atoms: _556  and  _557
REMARK  239  A    between atoms: _557  and  _558
REMARK  240  A    between atoms: _558  and  _559
REMARK  241  A    between atoms: _563  and  _565
REMARK  242  A    between atoms: _565  and  _566
REMARK  243  A    between atoms: _565  and  _568
REMARK  244  A    between atoms: _568  and  _569
REMARK  245  A    between atoms: _569  and  _570
REMARK  246  A    between atoms: _570  and  _571
REMARK  247  A    between atoms: _580  and  _582
REMARK  248  A    between atoms: _582  and  _583
REMARK  249  A    between atoms: _582  and  _585
REMARK  250  A    between atoms: _585  and  _586
REMARK  251  A    between atoms: _589  and  _591
REMARK  252  A    between atoms: _591  and  _592
REMARK  253  A    between atoms: _595  and  _597
REMARK  254  A    between atoms: _597  and  _598
REMARK  255  A    between atoms: _597  and  _600
REMARK  256  A    between atoms: _600  and  _601
REMARK  257  A    between atoms: _601  and  _602
REMARK                            x       y       z     vdW  Elec       q    Type
REMARK                         _______ _______ _______ _____ _____    ______ ____
ROOT
ATOM      1  O   HOH     1      30.926  12.792  51.315  0.00  0.00    +0.000 OA
ENDROOT
TORSDOF 0
REMARK  Name = ../refined-set-2016/3cd5/3cd5_pocket.pdb
REMARK  257 active torsions:
REMARK  status: ('A' for Active; 'I' for Inactive)
REMARK    1  A    between atoms: _1  and  _3
REMARK    2  A    between atoms: _3  and  _4
REMARK    3  A    between atoms: _3  and  _6
REMARK    4  A    between atoms: _6  and  _7
REMARK    5  A    between atoms: _7  and  _8
REMARK    6  A    between atoms: _11  and  _13
REMARK    7  A    between atoms: _13  and  _14
REMARK    8  A    between atoms: _16  and  _18
REMARK    9  A    between atoms: _18  and  _19
REMARK   10  A    between atoms: _18  and  _21
REMARK   11  A    between atoms: _23  and  _25
REMARK   12  A    between atoms: _25  and  _26
REMARK   13  A    between atoms: _25  and  _28
REMARK   14  A    between atoms: _28  and  _29
REMARK   15  A    between atoms: _32  and  _34
REMARK   16  A    between atoms: _34  and  _35
REMARK   17  A    between atoms: _34  and  _37
REMARK   18  A    between atoms: _40  and  _42
REMARK   19  A    between atoms: _42  and  _43
REMARK   20  A    between atoms: _46  and  _48
REMARK   21  A    between atoms: _48  and  _49
REMARK   22  A    between atoms: _48  and  _51
REMARK   23  A    between atoms: _51  and  _52
REMARK   24  A    between atoms: _54  and  _56
REMARK   25  A    between atoms: _56  and  _57
REMARK   26  A    between atoms: _56  and  _59
REMARK   27  A    between atoms: _59  and  _60
REMARK   28  A    between atoms: _63  and  _65
REMARK   29  A    between atoms: _65  and  _66
REMARK   30  A    between atoms: _65  and  _68
REMARK   31  A    between atoms: _68  and  _69
REMARK   32  A    between atoms: _74  and  _76
REMARK   33  A    between atoms: _76  and  _77
REMARK   34  A    between atoms: _76  and  _79
REMARK   35  A    between atoms: _79  and  _80
REMARK   36  A    between atoms: _80  and  _81
REMARK   37  A    between atoms: _81  and  _82
REMARK   38  A    between atoms: _91  and  _93
REMARK   39  A    between atoms: _93  and  _94
REMARK   40  A    between atoms: _96  and  _98
REMARK   41  A    between atoms: _98  and  _99
REMARK   42  A    between atoms: _98  and  _101
REMARK   43  A    between atoms: _101  and  _102
REMARK   44  A    between atoms: _102  and  _103
REMARK   45  A    between atoms: _106  and  _108
REMARK   46  A    between atoms: _108  and  _109
REMARK   47  A    between atoms: _108  and  _111
REMARK   48  A    between atoms: _114  and  _116
REMARK   49  A    between atoms: _116  and  _117
REMARK   50  A    between atoms: _116  and  _119
REMARK   51  A    between atoms: _119  and  _120
REMARK   52  A    between atoms: _123  and  _125
REMARK   53  A    between atoms: _125  and  _126
REMARK   54  A    between atoms: _125  and  _128
REMARK   55  A    between atoms: _128  and  _129
REMARK   56  A    between atoms: _129  and  _130
REMARK   57  A    between atoms: _130  and  _131
REMARK   58  A    between atoms: _131  and  _132
REMARK   59  A    between atoms: _136  and  _138
REMARK   60  A    between atoms: _138  and  _139
REMARK   61  A    between atoms: _138  and  _141
REMARK   62  A    between atoms: _141  and  _142
REMARK   63  A    between atoms: _142  and  _143
REMARK   64  A    between atoms: _143  and  _144
REMARK   65  A    between atoms: _144  and  _145
REMARK   66  A    between atoms: _149  and  _151
REMARK   67  A    between atoms: _151  and  _152
REMARK   68  A    between atoms: _151  and  _154
REMARK   69  A    between atoms: _154  and  _155
REMARK   70  A    between atoms: _160  and  _162
REMARK   71  A    between atoms: _162  and  _163
REMARK   72  A    between atoms: _162  and  _165
REMARK   73  A    between atoms: _165  and  _166
REMARK   74  A    between atoms: _171  and  _173
REMARK   75  A    between atoms: _173  and  _174
REMARK   76  A    between atoms: _177  and  _179
REMARK   77  A    between atoms: _179  and  _180
REMARK   78  A    between atoms: _179  and  _182
REMARK   79  A    between atoms: _182  and  _183
REMARK   80  A    between atoms: _188  and  _190
REMARK   81  A    between atoms: _190  and  _191
REMARK   82  A    between atoms: _194  and  _196
REMARK   83  A    between atoms: _196  and  _197
REMARK   84  A    between atoms: _200  and  _202
REMARK   85  A    between atoms: _202  and  _203
REMARK   86  A    between atoms: _202  and  _205
REMARK   87  A    between atoms: _205  and  _206
REMARK   88  A    between atoms: _211  and  _213
REMARK   89  A    between atoms: _213  and  _214
REMARK   90  A    between atoms: _213  and  _216
REMARK   91  A    between atoms: _216  and  _217
REMARK   92  A    between atoms: _220  and  _222
REMARK   93  A    between atoms: _222  and  _223
REMARK   94  A    between atoms: _225  and  _227
REMARK   95  A    between atoms: _227  and  _228
REMARK   96  A    between atoms: _227  and  _230
REMARK   97  A    between atoms: _230  and  _231
REMARK   98  A    between atoms: _231  and  _232
REMARK   99  A    between atoms: _235  and  _237
REMARK  100  A    between atoms: _237  and  _238
REMARK  101  A    between atoms: _237  and  _240
REMARK  102  A    between atoms: _240  and  _241
REMARK  103  A    between atoms: _244  and  _246
REMARK  104  A    between atoms: _246  and  _247
REMARK  105  A    between atoms: _246  and  _249
REMARK  106  A    between atoms: _249  and  _250
REMARK  107  A    between atoms: _252  and  _254
REMARK  108  A    between atoms: _254  and  _255
REMARK  109  A    between atoms: _254  and  _257
REMARK  110  A    between atoms: _257  and  _258
REMARK  111  A    between atoms: _261  and  _263
REMARK  112  A    between atoms: _263  and  _264
REMARK  113  A    between atoms: _263  and  _266
REMARK  114  A    between atoms: _266  and  _267
REMARK  115  A    between atoms: _267  and  _268
REMARK  116  A    between atoms: _270  and  _272
REMARK  117  A    between atoms: _272  and  _273
REMARK  118  A    between atoms: _276  and  _278
REMARK  119  A    between atoms: _278  and  _279
REMARK  120  A    between atoms: _282  and  _284
REMARK  121  A    between atoms: _284  and  _285
REMARK  122  A    between atoms: _284  and  _287
REMARK  123  A    between atoms: _287  and  _288
REMARK  124  A    between atoms: _291  and  _293
REMARK  125  A    between atoms: _293  and  _294
REMARK  126  A    between atoms: _297  and  _299
REMARK  127  A    between atoms: _299  and  _300
REMARK  128  A    between atoms: _303  and  _305
REMARK  129  A    between atoms: _305  and  _306
REMARK  130  A    between atoms: _308  and  _310
REMARK  131  A    between atoms: _310  and  _311
REMARK  132  A    between atoms: _310  and  _313
REMARK  133  A    between atoms: _313  and  _314
REMARK  134  A    between atoms: _319  and  _321
REMARK  135  A    between atoms: _321  and  _322
REMARK  136  A    between atoms: _321  and  _324
REMARK  137  A    between atoms: _324  and  _325
REMARK  138  A    between atoms: _328  and  _330
REMARK  139  A    between atoms: _330  and  _331
REMARK  140  A    between atoms: _330  and  _333
REMARK  141  A    between atoms: _336  and  _338
REMARK  142  A    between atoms: _338  and  _339
REMARK  143  A    between atoms: _338  and  _341
REMARK  144  A    between atoms: _341  and  _342
REMARK  145  A    between atoms: _342  and  _343
REMARK  146  A    between atoms: _343  and  _344
REMARK  147  A    between atoms: _344  and  _345
REMARK  148  A    between atoms: _349  and  _351
REMARK  149  A    between atoms: _351  and  _352
REMARK  150  A    between atoms: _351  and  _354
REMARK  151  A    between atoms: _354  and  _355
REMARK  152  A    between atoms: _357  and  _359
REMARK  153  A    between atoms: _359  and  _360
REMARK  154  A    between atoms: _359  and  _362
REMARK  155  A    between atoms: _362  and  _363
REMARK  156  A    between atoms: _368  and  _369
REMARK  157  A    between atoms: _371  and  _373
REMARK  158  A    between atoms: _373  and  _374
REMARK  159  A    between atoms: _373  and  _376
REMARK  160  A    between atoms: _376  and  _377
REMARK  161  A    between atoms: _377  and  _378
REMARK  162  A    between atoms: _381  and  _383
REMARK  163  A    between atoms: _383  and  _384
REMARK  164  A    between atoms: _383  and  _386
REMARK  165  A    between atoms: _386  and  _387
REMARK  166  A    between atoms: _392  and  _394
REMARK  167  A    between atoms: _394  and  _395
REMARK  168  A    between atoms: _394  and  _397
REMARK  169  A    between atoms: _397  and  _398
REMARK  170  A    between atoms: _401  and  _403
REMARK  171  A    between atoms: _403  and  _404
REMARK  172  A    between atoms: _403  and  _406
REMARK  173  A    between atoms: _406  and  _407
REMARK  174  A    between atoms: _407  and  _408
REMARK  175  A    between atoms: _408  and  _409
REMARK  176  A    between atoms: _418  and  _420
REMARK  177  A    between atoms: _420  and  _421
REMARK  178  A    between atoms: _423  and  _425
REMARK  179  A    between atoms: _425  and  _426
REMARK  180  A    between atoms: _425  and  _428
REMARK  181  A    between atoms: _428  and  _429
REMARK  182  A    between atoms: _429  and  _430
REMARK  183  A    between atoms: _432  and  _434
REMARK  184  A    between atoms: _434  and  _435
REMARK  185  A    between atoms: _434  and  _437
REMARK  186  A    between atoms: _437  and  _438
REMARK  187  A    between atoms: _438  and  _439
REMARK  188  A    between atoms: _441  and  _443
REMARK  189  A    between atoms: _443  and  _444
REMARK  190  A    between atoms: _443  and  _446
REMARK  191  A    between atoms: _446  and  _447
REMARK  192  A    between atoms: _452  and  _454
REMARK  193  A    between atoms: _454  and  _455
REMARK  194  A    between atoms: _454  and  _457
REMARK  195  A    between atoms: _457  and  _458
REMARK  196  A    between atoms: _460  and  _462
REMARK  197  A    between atoms: _462  and  _463
REMARK  198  A    between atoms: _466  and  _468
REMARK  199  A    between atoms: _468  and  _469
REMARK  200  A    between atoms: _468  and  _471
REMARK  201  A    between atoms: _474  and  _476
REMARK  202  A    between atoms: _476  and  _477
REMARK  203  A    between atoms: _476  and  _479
REMARK  204  A    between atoms: _479  and  _480
REMARK  205  A    between atoms: _482  and  _484
REMARK  206  A    between atoms: _484  and  _485
REMARK  207  A    between atoms: _487  and  _489
REMARK  208  A    between atoms: _489  and  _490
REMARK  209  A    between atoms: _489  and  _492
REMARK  210  A    between atoms: _492  and  _493
REMARK  211  A    between atoms: _498  and  _500
REMARK  212  A    between atoms: _500  and  _501
REMARK  213  A    between atoms: _500  and  _503
REMARK  214  A    between atoms: _503  and  _504
REMARK  215  A    between atoms: _509  and  _510
REMARK  216  A    between atoms: _512  and  _514
REMARK  217  A    between atoms: _514  and  _515
REMARK  218  A    between atoms: _514  and  _517
REMARK  219  A    between atoms: _519  and  _521
REMARK  220  A    between atoms: _521  and  _522
REMARK  221  A    between atoms: _521  and  _524
REMARK  222  A    between atoms: _524  and  _525
REMARK  223  A    between atoms: _528  and  _530
REMARK  224  A    between atoms: _530  and  _531
REMARK  225  A    between atoms: _530  and  _533
REMARK  226  A    between atoms: _533  and  _534
REMARK  227  A    between atoms: _537  and  _539
REMARK  228  A    between atoms: _539  and  _540
REMARK  229  A    between atoms: _539  and  _542
REMARK  230  A    between atoms: _542  and  _543
REMARK  231  A    between atoms: _543  and  _544
REMARK  232  A    between atoms: _544  and  _545
REMARK  233  A    between atoms: _545  and  _546
REMARK  234  A    between atoms: _550  and  _552
REMARK  235  A    between atoms: _552  and  _553
REMARK  236  A    between atoms: _552  and  _555
REMARK  237  A    between atoms: _555  and  _556
REMARK  238  A    between atoms: _556  and  _557
REMARK  239  A    between atoms: _557  and  _558
REMARK  240  A    between atoms: _558  and  _559
REMARK  241  A    between atoms: _563  and  _565
REMARK  242  A    between atoms: _565  and  _566
REMARK  243  A    between atoms: _565  and  _568
REMARK  244  A    between atoms: _568  and  _569
REMARK  245  A    between atoms: _569  and  _570
REMARK  246  A    between atoms: _570  and  _571
REMARK  247  A    between atoms: _580  and  _582
REMARK  248  A    between atoms: _582  and  _583
REMARK  249  A    between atoms: _582  and  _585
REMARK  250  A    between atoms: _585  and  _586
REMARK  251  A    between atoms: _589  and  _591
REMARK  252  A    between atoms: _591  and  _592
REMARK  253  A    between atoms: _595  and  _597
REMARK  254  A    between atoms: _597  and  _598
REMARK  255  A    between atoms: _597  and  _600
REMARK  256  A    between atoms: _600  and  _601
REMARK  257  A    between atoms: _601  and  _602
REMARK                            x       y       z     vdW  Elec       q    Type
REMARK                         _______ _______ _______ _____ _____    ______ ____
ROOT
ATOM      1  O   HOH     1      14.245   8.065  32.912  0.00  0.00    +0.000 OA
ENDROOT
TORSDOF 0
REMARK  Name = ../refined-set-2016/3cd5/3cd5_pocket.pdb
REMARK  257 active torsions:
REMARK  status: ('A' for Active; 'I' for Inactive)
REMARK    1  A    between atoms: _1  and  _3
REMARK    2  A    between atoms: _3  and  _4
REMARK    3  A    between atoms: _3  and  _6
REMARK    4  A    between atoms: _6  and  _7
REMARK    5  A    between atoms: _7  and  _8
REMARK    6  A    between atoms: _11  and  _13
REMARK    7  A    between atoms: _13  and  _14
REMARK    8  A    between atoms: _16  and  _18
REMARK    9  A    between atoms: _18  and  _19
REMARK   10  A    between atoms: _18  and  _21
REMARK   11  A    between atoms: _23  and  _25
REMARK   12  A    between atoms: _25  and  _26
REMARK   13  A    between atoms: _25  and  _28
REMARK   14  A    between atoms: _28  and  _29
REMARK   15  A    between atoms: _32  and  _34
REMARK   16  A    between atoms: _34  and  _35
REMARK   17  A    between atoms: _34  and  _37
REMARK   18  A    between atoms: _40  and  _42
REMARK   19  A    between atoms: _42  and  _43
REMARK   20  A    between atoms: _46  and  _48
REMARK   21  A    between atoms: _48  and  _49
REMARK   22  A    between atoms: _48  and  _51
REMARK   23  A    between atoms: _51  and  _52
REMARK   24  A    between atoms: _54  and  _56
REMARK   25  A    between atoms: _56  and  _57
REMARK   26  A    between atoms: _56  and  _59
REMARK   27  A    between atoms: _59  and  _60
REMARK   28  A    between atoms: _63  and  _65
REMARK   29  A    between atoms: _65  and  _66
REMARK   30  A    between atoms: _65  and  _68
REMARK   31  A    between atoms: _68  and  _69
REMARK   32  A    between atoms: _74  and  _76
REMARK   33  A    between atoms: _76  and  _77
REMARK   34  A    between atoms: _76  and  _79
REMARK   35  A    between atoms: _79  and  _80
REMARK   36  A    between atoms: _80  and  _81
REMARK   37  A    between atoms: _81  and  _82
REMARK   38  A    between atoms: _91  and  _93
REMARK   39  A    between atoms: _93  and  _94
REMARK   40  A    between atoms: _96  and  _98
REMARK   41  A    between atoms: _98  and  _99
REMARK   42  A    between atoms: _98  and  _101
REMARK   43  A    between atoms: _101  and  _102
REMARK   44  A    between atoms: _102  and  _103
REMARK   45  A    between atoms: _106  and  _108
REMARK   46  A    between atoms: _108  and  _109
REMARK   47  A    between atoms: _108  and  _111
REMARK   48  A    between atoms: _114  and  _116
REMARK   49  A    between atoms: _116  and  _117
REMARK   50  A    between atoms: _116  and  _119
REMARK   51  A    between atoms: _119  and  _120
REMARK   52  A    between atoms: _123  and  _125
REMARK   53  A    between atoms: _125  and  _126
REMARK   54  A    between atoms: _125  and  _128
REMARK   55  A    between atoms: _128  and  _129
REMARK   56  A    between atoms: _129  and  _130
REMARK   57  A    between atoms: _130  and  _131
REMARK   58  A    between atoms: _131  and  _132
REMARK   59  A    between atoms: _136  and  _138
REMARK   60  A    between atoms: _138  and  _139
REMARK   61  A    between atoms: _138  and  _141
REMARK   62  A    between atoms: _141  and  _142
REMARK   63  A    between atoms: _142  and  _143
REMARK   64  A    between atoms: _143  and  _144
REMARK   65  A    between atoms: _144  and  _145
REMARK   66  A    between atoms: _149  and  _151
REMARK   67  A    between atoms: _151  and  _152
REMARK   68  A    between atoms: _151  and  _154
REMARK   69  A    between atoms: _154  and  _155
REMARK   70  A    between atoms: _160  and  _162
REMARK   71  A    between atoms: _162  and  _163
REMARK   72  A    between atoms: _162  and  _165
REMARK   73  A    between atoms: _165  and  _166
REMARK   74  A    between atoms: _171  and  _173
REMARK   75  A    between atoms: _173  and  _174
REMARK   76  A    between atoms: _177  and  _179
REMARK   77  A    between atoms: _179  and  _180
REMARK   78  A    between atoms: _179  and  _182
REMARK   79  A    between atoms: _182  and  _183
REMARK   80  A    between atoms: _188  and  _190
REMARK   81  A    between atoms: _190  and  _191
REMARK   82  A    between atoms: _194  and  _196
REMARK   83  A    between atoms: _196  and  _197
REMARK   84  A    between atoms: _200  and  _202
REMARK   85  A    between atoms: _202  and  _203
REMARK   86  A    between atoms: _202  and  _205
REMARK   87  A    between atoms: _205  and  _206
REMARK   88  A    between atoms: _211  and  _213
REMARK   89  A    between atoms: _213  and  _214
REMARK   90  A    between atoms: _213  and  _216
REMARK   91  A    between atoms: _216  and  _217
REMARK   92  A    between atoms: _220  and  _222
REMARK   93  A    between atoms: _222  and  _223
REMARK   94  A    between atoms: _225  and  _227
REMARK   95  A    between atoms: _227  and  _228
REMARK   96  A    between atoms: _227  and  _230
REMARK   97  A    between atoms: _230  and  _231
REMARK   98  A    between atoms: _231  and  _232
REMARK   99  A    between atoms: _235  and  _237
REMARK  100  A    between atoms: _237  and  _238
REMARK  101  A    between atoms: _237  and  _240
REMARK  102  A    between atoms: _240  and  _241
REMARK  103  A    between atoms: _244  and  _246
REMARK  104  A    between atoms: _246  and  _247
REMARK  105  A    between atoms: _246  and  _249
REMARK  106  A    between atoms: _249  and  _250
REMARK  107  A    between atoms: _252  and  _254
REMARK  108  A    between atoms: _254  and  _255
REMARK  109  A    between atoms: _254  and  _257
REMARK  110  A    between atoms: _257  and  _258
REMARK  111  A    between atoms: _261  and  _263
REMARK  112  A    between atoms: _263  and  _264
REMARK  113  A    between atoms: _263  and  _266
REMARK  114  A    between atoms: _266  and  _267
REMARK  115  A    between atoms: _267  and  _268
REMARK  116  A    between atoms: _270  and  _272
REMARK  117  A    between atoms: _272  and  _273
REMARK  118  A    between atoms: _276  and  _278
REMARK  119  A    between atoms: _278  and  _279
REMARK  120  A    between atoms: _282  and  _284
REMARK  121  A    between atoms: _284  and  _285
REMARK  122  A    between atoms: _284  and  _287
REMARK  123  A    between atoms: _287  and  _288
REMARK  124  A    between atoms: _291  and  _293
REMARK  125  A    between atoms: _293  and  _294
REMARK  126  A    between atoms: _297  and  _299
REMARK  127  A    between atoms: _299  and  _300
REMARK  128  A    between atoms: _303  and  _305
REMARK  129  A    between atoms: _305  and  _306
REMARK  130  A    between atoms: _308  and  _310
REMARK  131  A    between atoms: _310  and  _311
REMARK  132  A    between atoms: _310  and  _313
REMARK  133  A    between atoms: _313  and  _314
REMARK  134  A    between atoms: _319  and  _321
REMARK  135  A    between atoms: _321  and  _322
REMARK  136  A    between atoms: _321  and  _324
REMARK  137  A    between atoms: _324  and  _325
REMARK  138  A    between atoms: _328  and  _330
REMARK  139  A    between atoms: _330  and  _331
REMARK  140  A    between atoms: _330  and  _333
REMARK  141  A    between atoms: _336  and  _338
REMARK  142  A    between atoms: _338  and  _339
REMARK  143  A    between atoms: _338  and  _341
REMARK  144  A    between atoms: _341  and  _342
REMARK  145  A    between atoms: _342  and  _343
REMARK  146  A    between atoms: _343  and  _344
REMARK  147  A    between atoms: _344  and  _345
REMARK  148  A    between atoms: _349  and  _351
REMARK  149  A    between atoms: _351  and  _352
REMARK  150  A    between atoms: _351  and  _354
REMARK  151  A    between atoms: _354  and  _355
REMARK  152  A    between atoms: _357  and  _359
REMARK  153  A    between atoms: _359  and  _360
REMARK  154  A    between atoms: _359  and  _362
REMARK  155  A    between atoms: _362  and  _363
REMARK  156  A    between atoms: _368  and  _369
REMARK  157  A    between atoms: _371  and  _373
REMARK  158  A    between atoms: _373  and  _374
REMARK  159  A    between atoms: _373  and  _376
REMARK  160  A    between atoms: _376  and  _377
REMARK  161  A    between atoms: _377  and  _378
REMARK  162  A    between atoms: _381  and  _383
REMARK  163  A    between atoms: _383  and  _384
REMARK  164  A    between atoms: _383  and  _386
REMARK  165  A    between atoms: _386  and  _387
REMARK  166  A    between atoms: _392  and  _394
REMARK  167  A    between atoms: _394  and  _395
REMARK  168  A    between atoms: _394  and  _397
REMARK  169  A    between atoms: _397  and  _398
REMARK  170  A    between atoms: _401  and  _403
REMARK  171  A    between atoms: _403  and  _404
REMARK  172  A    between atoms: _403  and  _406
REMARK  173  A    between atoms: _406  and  _407
REMARK  174  A    between atoms: _407  and  _408
REMARK  175  A    between atoms: _408  and  _409
REMARK  176  A    between atoms: _418  and  _420
REMARK  177  A    between atoms: _420  and  _421
REMARK  178  A    between atoms: _423  and  _425
REMARK  179  A    between atoms: _425  and  _426
REMARK  180  A    between atoms: _425  and  _428
REMARK  181  A    between atoms: _428  and  _429
REMARK  182  A    between atoms: _429  and  _430
REMARK  183  A    between atoms: _432  and  _434
REMARK  184  A    between atoms: _434  and  _435
REMARK  185  A    between atoms: _434  and  _437
REMARK  186  A    between atoms: _437  and  _438
REMARK  187  A    between atoms: _438  and  _439
REMARK  188  A    between atoms: _441  and  _443
REMARK  189  A    between atoms: _443  and  _444
REMARK  190  A    between atoms: _443  and  _446
REMARK  191  A    between atoms: _446  and  _447
REMARK  192  A    between atoms: _452  and  _454
REMARK  193  A    between atoms: _454  and  _455
REMARK  194  A    between atoms: _454  and  _457
REMARK  195  A    between atoms: _457  and  _458
REMARK  196  A    between atoms: _460  and  _462
REMARK  197  A    between atoms: _462  and  _463
REMARK  198  A    between atoms: _466  and  _468
REMARK  199  A    between atoms: _468  and  _469
REMARK  200  A    between atoms: _468  and  _471
REMARK  201  A    between atoms: _474  and  _476
REMARK  202  A    between atoms: _476  and  _477
REMARK  203  A    between atoms: _476  and  _479
REMARK  204  A    between atoms: _479  and  _480
REMARK  205  A    between atoms: _482  and  _484
REMARK  206  A    between atoms: _484  and  _485
REMARK  207  A    between atoms: _487  and  _489
REMARK  208  A    between atoms: _489  and  _490
REMARK  209  A    between atoms: _489  and  _492
REMARK  210  A    between atoms: _492  and  _493
REMARK  211  A    between atoms: _498  and  _500
REMARK  212  A    between atoms: _500  and  _501
REMARK  213  A    between atoms: _500  and  _503
REMARK  214  A    between atoms: _503  and  _504
REMARK  215  A    between atoms: _509  and  _510
REMARK  216  A    between atoms: _512  and  _514
REMARK  217  A    between atoms: _514  and  _515
REMARK  218  A    between atoms: _514  and  _517
REMARK  219  A    between atoms: _519  and  _521
REMARK  220  A    between atoms: _521  and  _522
REMARK  221  A    between atoms: _521  and  _524
REMARK  222  A    between atoms: _524  and  _525
REMARK  223  A    between atoms: _528  and  _530
REMARK  224  A    between atoms: _530  and  _531
REMARK  225  A    between atoms: _530  and  _533
REMARK  226  A    between atoms: _533  and  _534
REMARK  227  A    between atoms: _537  and  _539
REMARK  228  A    between atoms: _539  and  _540
REMARK  229  A    between atoms: _539  and  _542
REMARK  230  A    between atoms: _542  and  _543
REMARK  231  A    between atoms: _543  and  _544
REMARK  232  A    between atoms: _544  and  _545
REMARK  233  A    between atoms: _545  and  _546
REMARK  234  A    between atoms: _550  and  _552
REMARK  235  A    between atoms: _552  and  _553
REMARK  236  A    between atoms: _552  and  _555
REMARK  237  A    between atoms: _555  and  _556
REMARK  238  A    between atoms: _556  and  _557
REMARK  239  A    between atoms: _557  and  _558
REMARK  240  A    between atoms: _558  and  _559
REMARK  241  A    between atoms: _563  and  _565
REMARK  242  A    between atoms: _565  and  _566
REMARK  243  A    between atoms: _565  and  _568
REMARK  244  A    between atoms: _568  and  _569
REMARK  245  A    between atoms: _569  and  _570
REMARK  246  A    between atoms: _570  and  _571
REMARK  247  A    between atoms: _580  and  _582
REMARK  248  A    between atoms: _582  and  _583
REMARK  249  A    between atoms: _582  and  _585
REMARK  250  A    between atoms: _585  and  _586
REMARK  251  A    between atoms: _589  and  _591
REMARK  252  A    between atoms: _591  and  _592
REMARK  253  A    between atoms: _595  and  _597
REMARK  254  A    between atoms: _597  and  _598
REMARK  255  A    between atoms: _597  and  _600
REMARK  256  A    between atoms: _600  and  _601
REMARK  257  A    between atoms: _601  and  _602
REMARK                            x       y       z     vdW  Elec       q    Type
REMARK                         _______ _______ _______ _____ _____    ______ ____
ROOT
ATOM      1  O   HOH     1      10.026  13.563  40.944  0.00  0.00    +0.000 OA
ENDROOT
TORSDOF 0
REMARK  Name = ../refined-set-2016/3cd5/3cd5_pocket.pdb
REMARK  257 active torsions:
REMARK  status: ('A' for Active; 'I' for Inactive)
REMARK    1  A    between atoms: _1  and  _3
REMARK    2  A    between atoms: _3  and  _4
REMARK    3  A    between atoms: _3  and  _6
REMARK    4  A    between atoms: _6  and  _7
REMARK    5  A    between atoms: _7  and  _8
REMARK    6  A    between atoms: _11  and  _13
REMARK    7  A    between atoms: _13  and  _14
REMARK    8  A    between atoms: _16  and  _18
REMARK    9  A    between atoms: _18  and  _19
REMARK   10  A    between atoms: _18  and  _21
REMARK   11  A    between atoms: _23  and  _25
REMARK   12  A    between atoms: _25  and  _26
REMARK   13  A    between atoms: _25  and  _28
REMARK   14  A    between atoms: _28  and  _29
REMARK   15  A    between atoms: _32  and  _34
REMARK   16  A    between atoms: _34  and  _35
REMARK   17  A    between atoms: _34  and  _37
REMARK   18  A    between atoms: _40  and  _42
REMARK   19  A    between atoms: _42  and  _43
REMARK   20  A    between atoms: _46  and  _48
REMARK   21  A    between atoms: _48  and  _49
REMARK   22  A    between atoms: _48  and  _51
REMARK   23  A    between atoms: _51  and  _52
REMARK   24  A    between atoms: _54  and  _56
REMARK   25  A    between atoms: _56  and  _57
REMARK   26  A    between atoms: _56  and  _59
REMARK   27  A    between atoms: _59  and  _60
REMARK   28  A    between atoms: _63  and  _65
REMARK   29  A    between atoms: _65  and  _66
REMARK   30  A    between atoms: _65  and  _68
REMARK   31  A    between atoms: _68  and  _69
REMARK   32  A    between atoms: _74  and  _76
REMARK   33  A    between atoms: _76  and  _77
REMARK   34  A    between atoms: _76  and  _79
REMARK   35  A    between atoms: _79  and  _80
REMARK   36  A    between atoms: _80  and  _81
REMARK   37  A    between atoms: _81  and  _82
REMARK   38  A    between atoms: _91  and  _93
REMARK   39  A    between atoms: _93  and  _94
REMARK   40  A    between atoms: _96  and  _98
REMARK   41  A    between atoms: _98  and  _99
REMARK   42  A    between atoms: _98  and  _101
REMARK   43  A    between atoms: _101  and  _102
REMARK   44  A    between atoms: _102  and  _103
REMARK   45  A    between atoms: _106  and  _108
REMARK   46  A    between atoms: _108  and  _109
REMARK   47  A    between atoms: _108  and  _111
REMARK   48  A    between atoms: _114  and  _116
REMARK   49  A    between atoms: _116  and  _117
REMARK   50  A    between atoms: _116  and  _119
REMARK   51  A    between atoms: _119  and  _120
REMARK   52  A    between atoms: _123  and  _125
REMARK   53  A    between atoms: _125  and  _126
REMARK   54  A    between atoms: _125  and  _128
REMARK   55  A    between atoms: _128  and  _129
REMARK   56  A    between atoms: _129  and  _130
REMARK   57  A    between atoms: _130  and  _131
REMARK   58  A    between atoms: _131  and  _132
REMARK   59  A    between atoms: _136  and  _138
REMARK   60  A    between atoms: _138  and  _139
REMARK   61  A    between atoms: _138  and  _141
REMARK   62  A    between atoms: _141  and  _142
REMARK   63  A    between atoms: _142  and  _143
REMARK   64  A    between atoms: _143  and  _144
REMARK   65  A    between atoms: _144  and  _145
REMARK   66  A    between atoms: _149  and  _151
REMARK   67  A    between atoms: _151  and  _152
REMARK   68  A    between atoms: _151  and  _154
REMARK   69  A    between atoms: _154  and  _155
REMARK   70  A    between atoms: _160  and  _162
REMARK   71  A    between atoms: _162  and  _163
REMARK   72  A    between atoms: _162  and  _165
REMARK   73  A    between atoms: _165  and  _166
REMARK   74  A    between atoms: _171  and  _173
REMARK   75  A    between atoms: _173  and  _174
REMARK   76  A    between atoms: _177  and  _179
REMARK   77  A    between atoms: _179  and  _180
REMARK   78  A    between atoms: _179  and  _182
REMARK   79  A    between atoms: _182  and  _183
REMARK   80  A    between atoms: _188  and  _190
REMARK   81  A    between atoms: _190  and  _191
REMARK   82  A    between atoms: _194  and  _196
REMARK   83  A    between atoms: _196  and  _197
REMARK   84  A    between atoms: _200  and  _202
REMARK   85  A    between atoms: _202  and  _203
REMARK   86  A    between atoms: _202  and  _205
REMARK   87  A    between atoms: _205  and  _206
REMARK   88  A    between atoms: _211  and  _213
REMARK   89  A    between atoms: _213  and  _214
REMARK   90  A    between atoms: _213  and  _216
REMARK   91  A    between atoms: _216  and  _217
REMARK   92  A    between atoms: _220  and  _222
REMARK   93  A    between atoms: _222  and  _223
REMARK   94  A    between atoms: _225  and  _227
REMARK   95  A    between atoms: _227  and  _228
REMARK   96  A    between atoms: _227  and  _230
REMARK   97  A    between atoms: _230  and  _231
REMARK   98  A    between atoms: _231  and  _232
REMARK   99  A    between atoms: _235  and  _237
REMARK  100  A    between atoms: _237  and  _238
REMARK  101  A    between atoms: _237  and  _240
REMARK  102  A    between atoms: _240  and  _241
REMARK  103  A    between atoms: _244  and  _246
REMARK  104  A    between atoms: _246  and  _247
REMARK  105  A    between atoms: _246  and  _249
REMARK  106  A    between atoms: _249  and  _250
REMARK  107  A    between atoms: _252  and  _254
REMARK  108  A    between atoms: _254  and  _255
REMARK  109  A    between atoms: _254  and  _257
REMARK  110  A    between atoms: _257  and  _258
REMARK  111  A    between atoms: _261  and  _263
REMARK  112  A    between atoms: _263  and  _264
REMARK  113  A    between atoms: _263  and  _266
REMARK  114  A    between atoms: _266  and  _267
REMARK  115  A    between atoms: _267  and  _268
REMARK  116  A    between atoms: _270  and  _272
REMARK  117  A    between atoms: _272  and  _273
REMARK  118  A    between atoms: _276  and  _278
REMARK  119  A    between atoms: _278  and  _279
REMARK  120  A    between atoms: _282  and  _284
REMARK  121  A    between atoms: _284  and  _285
REMARK  122  A    between atoms: _284  and  _287
REMARK  123  A    between atoms: _287  and  _288
REMARK  124  A    between atoms: _291  and  _293
REMARK  125  A    between atoms: _293  and  _294
REMARK  126  A    between atoms: _297  and  _299
REMARK  127  A    between atoms: _299  and  _300
REMARK  128  A    between atoms: _303  and  _305
REMARK  129  A    between atoms: _305  and  _306
REMARK  130  A    between atoms: _308  and  _310
REMARK  131  A    between atoms: _310  and  _311
REMARK  132  A    between atoms: _310  and  _313
REMARK  133  A    between atoms: _313  and  _314
REMARK  134  A    between atoms: _319  and  _321
REMARK  135  A    between atoms: _321  and  _322
REMARK  136  A    between atoms: _321  and  _324
REMARK  137  A    between atoms: _324  and  _325
REMARK  138  A    between atoms: _328  and  _330
REMARK  139  A    between atoms: _330  and  _331
REMARK  140  A    between atoms: _330  and  _333
REMARK  141  A    between atoms: _336  and  _338
REMARK  142  A    between atoms: _338  and  _339
REMARK  143  A    between atoms: _338  and  _341
REMARK  144  A    between atoms: _341  and  _342
REMARK  145  A    between atoms: _342  and  _343
REMARK  146  A    between atoms: _343  and  _344
REMARK  147  A    between atoms: _344  and  _345
REMARK  148  A    between atoms: _349  and  _351
REMARK  149  A    between atoms: _351  and  _352
REMARK  150  A    between atoms: _351  and  _354
REMARK  151  A    between atoms: _354  and  _355
REMARK  152  A    between atoms: _357  and  _359
REMARK  153  A    between atoms: _359  and  _360
REMARK  154  A    between atoms: _359  and  _362
REMARK  155  A    between atoms: _362  and  _363
REMARK  156  A    between atoms: _368  and  _369
REMARK  157  A    between atoms: _371  and  _373
REMARK  158  A    between atoms: _373  and  _374
REMARK  159  A    between atoms: _373  and  _376
REMARK  160  A    between atoms: _376  and  _377
REMARK  161  A    between atoms: _377  and  _378
REMARK  162  A    between atoms: _381  and  _383
REMARK  163  A    between atoms: _383  and  _384
REMARK  164  A    between atoms: _383  and  _386
REMARK  165  A    between atoms: _386  and  _387
REMARK  166  A    between atoms: _392  and  _394
REMARK  167  A    between atoms: _394  and  _395
REMARK  168  A    between atoms: _394  and  _397
REMARK  169  A    between atoms: _397  and  _398
REMARK  170  A    between atoms: _401  and  _403
REMARK  171  A    between atoms: _403  and  _404
REMARK  172  A    between atoms: _403  and  _406
REMARK  173  A    between atoms: _406  and  _407
REMARK  174  A    between atoms: _407  and  _408
REMARK  175  A    between atoms: _408  and  _409
REMARK  176  A    between atoms: _418  and  _420
REMARK  177  A    between atoms: _420  and  _421
REMARK  178  A    between atoms: _423  and  _425
REMARK  179  A    between atoms: _425  and  _426
REMARK  180  A    between atoms: _425  and  _428
REMARK  181  A    between atoms: _428  and  _429
REMARK  182  A    between atoms: _429  and  _430
REMARK  183  A    between atoms: _432  and  _434
REMARK  184  A    between atoms: _434  and  _435
REMARK  185  A    between atoms: _434  and  _437
REMARK  186  A    between atoms: _437  and  _438
REMARK  187  A    between atoms: _438  and  _439
REMARK  188  A    between atoms: _441  and  _443
REMARK  189  A    between atoms: _443  and  _444
REMARK  190  A    between atoms: _443  and  _446
REMARK  191  A    between atoms: _446  and  _447
REMARK  192  A    between atoms: _452  and  _454
REMARK  193  A    between atoms: _454  and  _455
REMARK  194  A    between atoms: _454  and  _457
REMARK  195  A    between atoms: _457  and  _458
REMARK  196  A    between atoms: _460  and  _462
REMARK  197  A    between atoms: _462  and  _463
REMARK  198  A    between atoms: _466  and  _468
REMARK  199  A    between atoms: _468  and  _469
REMARK  200  A    between atoms: _468  and  _471
REMARK  201  A    between atoms: _474  and  _476
REMARK  202  A    between atoms: _476  and  _477
REMARK  203  A    between atoms: _476  and  _479
REMARK  204  A    between atoms: _479  and  _480
REMARK  205  A    between atoms: _482  and  _484
REMARK  206  A    between atoms: _484  and  _485
REMARK  207  A    between atoms: _487  and  _489
REMARK  208  A    between atoms: _489  and  _490
REMARK  209  A    between atoms: _489  and  _492
REMARK  210  A    between atoms: _492  and  _493
REMARK  211  A    between atoms: _498  and  _500
REMARK  212  A    between atoms: _500  and  _501
REMARK  213  A    between atoms: _500  and  _503
REMARK  214  A    between atoms: _503  and  _504
REMARK  215  A    between atoms: _509  and  _510
REMARK  216  A    between atoms: _512  and  _514
REMARK  217  A    between atoms: _514  and  _515
REMARK  218  A    between atoms: _514  and  _517
REMARK  219  A    between atoms: _519  and  _521
REMARK  220  A    between atoms: _521  and  _522
REMARK  221  A    between atoms: _521  and  _524
REMARK  222  A    between atoms: _524  and  _525
REMARK  223  A    between atoms: _528  and  _530
REMARK  224  A    between atoms: _530  and  _531
REMARK  225  A    between atoms: _530  and  _533
REMARK  226  A    between atoms: _533  and  _534
REMARK  227  A    between atoms: _537  and  _539
REMARK  228  A    between atoms: _539  and  _540
REMARK  229  A    between atoms: _539  and  _542
REMARK  230  A    between atoms: _542  and  _543
REMARK  231  A    between atoms: _543  and  _544
REMARK  232  A    between atoms: _544  and  _545
REMARK  233  A    between atoms: _545  and  _546
REMARK  234  A    between atoms: _550  and  _552
REMARK  235  A    between atoms: _552  and  _553
REMARK  236  A    between atoms: _552  and  _555
REMARK  237  A    between atoms: _555  and  _556
REMARK  238  A    between atoms: _556  and  _557
REMARK  239  A    between atoms: _557  and  _558
REMARK  240  A    between atoms: _558  and  _559
REMARK  241  A    between atoms: _563  and  _565
REMARK  242  A    between atoms: _565  and  _566
REMARK  243  A    between atoms: _565  and  _568
REMARK  244  A    between atoms: _568  and  _569
REMARK  245  A    between atoms: _569  and  _570
REMARK  246  A    between atoms: _570  and  _571
REMARK  247  A    between atoms: _580  and  _582
REMARK  248  A    between atoms: _582  and  _583
REMARK  249  A    between atoms: _582  and  _585
REMARK  250  A    between atoms: _585  and  _586
REMARK  251  A    between atoms: _589  and  _591
REMARK  252  A    between atoms: _591  and  _592
REMARK  253  A    between atoms: _595  and  _597
REMARK  254  A    between atoms: _597  and  _598
REMARK  255  A    between atoms: _597  and  _600
REMARK  256  A    between atoms: _600  and  _601
REMARK  257  A    between atoms: _601  and  _602
REMARK                            x       y       z     vdW  Elec       q    Type
REMARK                         _______ _______ _______ _____ _____    ______ ____
ROOT
ATOM      1  O   HOH     1       6.690   8.061  45.342  0.00  0.00    +0.000 OA
ENDROOT
TORSDOF 0
REMARK  Name = ../refined-set-2016/3cd5/3cd5_pocket.pdb
REMARK  257 active torsions:
REMARK  status: ('A' for Active; 'I' for Inactive)
REMARK    1  A    between atoms: _1  and  _3
REMARK    2  A    between atoms: _3  and  _4
REMARK    3  A    between atoms: _3  and  _6
REMARK    4  A    between atoms: _6  and  _7
REMARK    5  A    between atoms: _7  and  _8
REMARK    6  A    between atoms: _11  and  _13
REMARK    7  A    between atoms: _13  and  _14
REMARK    8  A    between atoms: _16  and  _18
REMARK    9  A    between atoms: _18  and  _19
REMARK   10  A    between atoms: _18  and  _21
REMARK   11  A    between atoms: _23  and  _25
REMARK   12  A    between atoms: _25  and  _26
REMARK   13  A    between atoms: _25  and  _28
REMARK   14  A    between atoms: _28  and  _29
REMARK   15  A    between atoms: _32  and  _34
REMARK   16  A    between atoms: _34  and  _35
REMARK   17  A    between atoms: _34  and  _37
REMARK   18  A    between atoms: _40  and  _42
REMARK   19  A    between atoms: _42  and  _43
REMARK   20  A    between atoms: _46  and  _48
REMARK   21  A    between atoms: _48  and  _49
REMARK   22  A    between atoms: _48  and  _51
REMARK   23  A    between atoms: _51  and  _52
REMARK   24  A    between atoms: _54  and  _56
REMARK   25  A    between atoms: _56  and  _57
REMARK   26  A    between atoms: _56  and  _59
REMARK   27  A    between atoms: _59  and  _60
REMARK   28  A    between atoms: _63  and  _65
REMARK   29  A    between atoms: _65  and  _66
REMARK   30  A    between atoms: _65  and  _68
REMARK   31  A    between atoms: _68  and  _69
REMARK   32  A    between atoms: _74  and  _76
REMARK   33  A    between atoms: _76  and  _77
REMARK   34  A    between atoms: _76  and  _79
REMARK   35  A    between atoms: _79  and  _80
REMARK   36  A    between atoms: _80  and  _81
REMARK   37  A    between atoms: _81  and  _82
REMARK   38  A    between atoms: _91  and  _93
REMARK   39  A    between atoms: _93  and  _94
REMARK   40  A    between atoms: _96  and  _98
REMARK   41  A    between atoms: _98  and  _99
REMARK   42  A    between atoms: _98  and  _101
REMARK   43  A    between atoms: _101  and  _102
REMARK   44  A    between atoms: _102  and  _103
REMARK   45  A    between atoms: _106  and  _108
REMARK   46  A    between atoms: _108  and  _109
REMARK   47  A    between atoms: _108  and  _111
REMARK   48  A    between atoms: _114  and  _116
REMARK   49  A    between atoms: _116  and  _117
REMARK   50  A    between atoms: _116  and  _119
REMARK   51  A    between atoms: _119  and  _120
REMARK   52  A    between atoms: _123  and  _125
REMARK   53  A    between atoms: _125  and  _126
REMARK   54  A    between atoms: _125  and  _128
REMARK   55  A    between atoms: _128  and  _129
REMARK   56  A    between atoms: _129  and  _130
REMARK   57  A    between atoms: _130  and  _131
REMARK   58  A    between atoms: _131  and  _132
REMARK   59  A    between atoms: _136  and  _138
REMARK   60  A    between atoms: _138  and  _139
REMARK   61  A    between atoms: _138  and  _141
REMARK   62  A    between atoms: _141  and  _142
REMARK   63  A    between atoms: _142  and  _143
REMARK   64  A    between atoms: _143  and  _144
REMARK   65  A    between atoms: _144  and  _145
REMARK   66  A    between atoms: _149  and  _151
REMARK   67  A    between atoms: _151  and  _152
REMARK   68  A    between atoms: _151  and  _154
REMARK   69  A    between atoms: _154  and  _155
REMARK   70  A    between atoms: _160  and  _162
REMARK   71  A    between atoms: _162  and  _163
REMARK   72  A    between atoms: _162  and  _165
REMARK   73  A    between atoms: _165  and  _166
REMARK   74  A    between atoms: _171  and  _173
REMARK   75  A    between atoms: _173  and  _174
REMARK   76  A    between atoms: _177  and  _179
REMARK   77  A    between atoms: _179  and  _180
REMARK   78  A    between atoms: _179  and  _182
REMARK   79  A    between atoms: _182  and  _183
REMARK   80  A    between atoms: _188  and  _190
REMARK   81  A    between atoms: _190  and  _191
REMARK   82  A    between atoms: _194  and  _196
REMARK   83  A    between atoms: _196  and  _197
REMARK   84  A    between atoms: _200  and  _202
REMARK   85  A    between atoms: _202  and  _203
REMARK   86  A    between atoms: _202  and  _205
REMARK   87  A    between atoms: _205  and  _206
REMARK   88  A    between atoms: _211  and  _213
REMARK   89  A    between atoms: _213  and  _214
REMARK   90  A    between atoms: _213  and  _216
REMARK   91  A    between atoms: _216  and  _217
REMARK   92  A    between atoms: _220  and  _222
REMARK   93  A    between atoms: _222  and  _223
REMARK   94  A    between atoms: _225  and  _227
REMARK   95  A    between atoms: _227  and  _228
REMARK   96  A    between atoms: _227  and  _230
REMARK   97  A    between atoms: _230  and  _231
REMARK   98  A    between atoms: _231  and  _232
REMARK   99  A    between atoms: _235  and  _237
REMARK  100  A    between atoms: _237  and  _238
REMARK  101  A    between atoms: _237  and  _240
REMARK  102  A    between atoms: _240  and  _241
REMARK  103  A    between atoms: _244  and  _246
REMARK  104  A    between atoms: _246  and  _247
REMARK  105  A    between atoms: _246  and  _249
REMARK  106  A    between atoms: _249  and  _250
REMARK  107  A    between atoms: _252  and  _254
REMARK  108  A    between atoms: _254  and  _255
REMARK  109  A    between atoms: _254  and  _257
REMARK  110  A    between atoms: _257  and  _258
REMARK  111  A    between atoms: _261  and  _263
REMARK  112  A    between atoms: _263  and  _264
REMARK  113  A    between atoms: _263  and  _266
REMARK  114  A    between atoms: _266  and  _267
REMARK  115  A    between atoms: _267  and  _268
REMARK  116  A    between atoms: _270  and  _272
REMARK  117  A    between atoms: _272  and  _273
REMARK  118  A    between atoms: _276  and  _278
REMARK  119  A    between atoms: _278  and  _279
REMARK  120  A    between atoms: _282  and  _284
REMARK  121  A    between atoms: _284  and  _285
REMARK  122  A    between atoms: _284  and  _287
REMARK  123  A    between atoms: _287  and  _288
REMARK  124  A    between atoms: _291  and  _293
REMARK  125  A    between atoms: _293  and  _294
REMARK  126  A    between atoms: _297  and  _299
REMARK  127  A    between atoms: _299  and  _300
REMARK  128  A    between atoms: _303  and  _305
REMARK  129  A    between atoms: _305  and  _306
REMARK  130  A    between atoms: _308  and  _310
REMARK  131  A    between atoms: _310  and  _311
REMARK  132  A    between atoms: _310  and  _313
REMARK  133  A    between atoms: _313  and  _314
REMARK  134  A    between atoms: _319  and  _321
REMARK  135  A    between atoms: _321  and  _322
REMARK  136  A    between atoms: _321  and  _324
REMARK  137  A    between atoms: _324  and  _325
REMARK  138  A    between atoms: _328  and  _330
REMARK  139  A    between atoms: _330  and  _331
REMARK  140  A    between atoms: _330  and  _333
REMARK  141  A    between atoms: _336  and  _338
REMARK  142  A    between atoms: _338  and  _339
REMARK  143  A    between atoms: _338  and  _341
REMARK  144  A    between atoms: _341  and  _342
REMARK  145  A    between atoms: _342  and  _343
REMARK  146  A    between atoms: _343  and  _344
REMARK  147  A    between atoms: _344  and  _345
REMARK  148  A    between atoms: _349  and  _351
REMARK  149  A    between atoms: _351  and  _352
REMARK  150  A    between atoms: _351  and  _354
REMARK  151  A    between atoms: _354  and  _355
REMARK  152  A    between atoms: _357  and  _359
REMARK  153  A    between atoms: _359  and  _360
REMARK  154  A    between atoms: _359  and  _362
REMARK  155  A    between atoms: _362  and  _363
REMARK  156  A    between atoms: _368  and  _369
REMARK  157  A    between atoms: _371  and  _373
REMARK  158  A    between atoms: _373  and  _374
REMARK  159  A    between atoms: _373  and  _376
REMARK  160  A    between atoms: _376  and  _377
REMARK  161  A    between atoms: _377  and  _378
REMARK  162  A    between atoms: _381  and  _383
REMARK  163  A    between atoms: _383  and  _384
REMARK  164  A    between atoms: _383  and  _386
REMARK  165  A    between atoms: _386  and  _387
REMARK  166  A    between atoms: _392  and  _394
REMARK  167  A    between atoms: _394  and  _395
REMARK  168  A    between atoms: _394  and  _397
REMARK  169  A    between atoms: _397  and  _398
REMARK  170  A    between atoms: _401  and  _403
REMARK  171  A    between atoms: _403  and  _404
REMARK  172  A    between atoms: _403  and  _406
REMARK  173  A    between atoms: _406  and  _407
REMARK  174  A    between atoms: _407  and  _408
REMARK  175  A    between atoms: _408  and  _409
REMARK  176  A    between atoms: _418  and  _420
REMARK  177  A    between atoms: _420  and  _421
REMARK  178  A    between atoms: _423  and  _425
REMARK  179  A    between atoms: _425  and  _426
REMARK  180  A    between atoms: _425  and  _428
REMARK  181  A    between atoms: _428  and  _429
REMARK  182  A    between atoms: _429  and  _430
REMARK  183  A    between atoms: _432  and  _434
REMARK  184  A    between atoms: _434  and  _435
REMARK  185  A    between atoms: _434  and  _437
REMARK  186  A    between atoms: _437  and  _438
REMARK  187  A    between atoms: _438  and  _439
REMARK  188  A    between atoms: _441  and  _443
REMARK  189  A    between atoms: _443  and  _444
REMARK  190  A    between atoms: _443  and  _446
REMARK  191  A    between atoms: _446  and  _447
REMARK  192  A    between atoms: _452  and  _454
REMARK  193  A    between atoms: _454  and  _455
REMARK  194  A    between atoms: _454  and  _457
REMARK  195  A    between atoms: _457  and  _458
REMARK  196  A    between atoms: _460  and  _462
REMARK  197  A    between atoms: _462  and  _463
REMARK  198  A    between atoms: _466  and  _468
REMARK  199  A    between atoms: _468  and  _469
REMARK  200  A    between atoms: _468  and  _471
REMARK  201  A    between atoms: _474  and  _476
REMARK  202  A    between atoms: _476  and  _477
REMARK  203  A    between atoms: _476  and  _479
REMARK  204  A    between atoms: _479  and  _480
REMARK  205  A    between atoms: _482  and  _484
REMARK  206  A    between atoms: _484  and  _485
REMARK  207  A    between atoms: _487  and  _489
REMARK  208  A    between atoms: _489  and  _490
REMARK  209  A    between atoms: _489  and  _492
REMARK  210  A    between atoms: _492  and  _493
REMARK  211  A    between atoms: _498  and  _500
REMARK  212  A    between atoms: _500  and  _501
REMARK  213  A    between atoms: _500  and  _503
REMARK  214  A    between atoms: _503  and  _504
REMARK  215  A    between atoms: _509  and  _510
REMARK  216  A    between atoms: _512  and  _514
REMARK  217  A    between atoms: _514  and  _515
REMARK  218  A    between atoms: _514  and  _517
REMARK  219  A    between atoms: _519  and  _521
REMARK  220  A    between atoms: _521  and  _522
REMARK  221  A    between atoms: _521  and  _524
REMARK  222  A    between atoms: _524  and  _525
REMARK  223  A    between atoms: _528  and  _530
REMARK  224  A    between atoms: _530  and  _531
REMARK  225  A    between atoms: _530  and  _533
REMARK  226  A    between atoms: _533  and  _534
REMARK  227  A    between atoms: _537  and  _539
REMARK  228  A    between atoms: _539  and  _540
REMARK  229  A    between atoms: _539  and  _542
REMARK  230  A    between atoms: _542  and  _543
REMARK  231  A    between atoms: _543  and  _544
REMARK  232  A    between atoms: _544  and  _545
REMARK  233  A    between atoms: _545  and  _546
REMARK  234  A    between atoms: _550  and  _552
REMARK  235  A    between atoms: _552  and  _553
REMARK  236  A    between atoms: _552  and  _555
REMARK  237  A    between atoms: _555  and  _556
REMARK  238  A    between atoms: _556  and  _557
REMARK  239  A    between atoms: _557  and  _558
REMARK  240  A    between atoms: _558  and  _559
REMARK  241  A    between atoms: _563  and  _565
REMARK  242  A    between atoms: _565  and  _566
REMARK  243  A    between atoms: _565  and  _568
REMARK  244  A    between atoms: _568  and  _569
REMARK  245  A    between atoms: _569  and  _570
REMARK  246  A    between atoms: _570  and  _571
REMARK  247  A    between atoms: _580  and  _582
REMARK  248  A    between atoms: _582  and  _583
REMARK  249  A    between atoms: _582  and  _585
REMARK  250  A    between atoms: _585  and  _586
REMARK  251  A    between atoms: _589  and  _591
REMARK  252  A    between atoms: _591  and  _592
REMARK  253  A    between atoms: _595  and  _597
REMARK  254  A    between atoms: _597  and  _598
REMARK  255  A    between atoms: _597  and  _600
REMARK  256  A    between atoms: _600  and  _601
REMARK  257  A    between atoms: _601  and  _602
REMARK                            x       y       z     vdW  Elec       q    Type
REMARK                         _______ _______ _______ _____ _____    ______ ____
ROOT
ATOM      1  O   HOH     1       8.652   7.193  41.455  0.00  0.00    +0.000 OA
ENDROOT
TORSDOF 0
