REMARK  Name = ../refined-set-2016/3iw5/3iw5_pocket.pdb
REMARK  202 active torsions:
REMARK  status: ('A' for Active; 'I' for Inactive)
REMARK    1  A    between atoms: _1  and  _3
REMARK    2  A    between atoms: _3  and  _4
REMARK    3  A    between atoms: _3  and  _6
REMARK    4  A    between atoms: _6  and  _7
REMARK    5  A    between atoms: _17  and  _19
REMARK    6  A    between atoms: _19  and  _20
REMARK    7  A    between atoms: _19  and  _22
REMARK    8  A    between atoms: _22  and  _23
REMARK    9  A    between atoms: _26  and  _27
REMARK   10  A    between atoms: _32  and  _34
REMARK   11  A    between atoms: _34  and  _35
REMARK   12  A    between atoms: _34  and  _37
REMARK   13  A    between atoms: _40  and  _42
REMARK   14  A    between atoms: _42  and  _43
REMARK   15  A    between atoms: _45  and  _47
REMARK   16  A    between atoms: _47  and  _48
REMARK   17  A    between atoms: _47  and  _50
REMARK   18  A    between atoms: _50  and  _51
REMARK   19  A    between atoms: _53  and  _57
REMARK   20  A    between atoms: _57  and  _58
REMARK   21  A    between atoms: _57  and  _60
REMARK   22  A    between atoms: _60  and  _61
REMARK   23  A    between atoms: _66  and  _67
REMARK   24  A    between atoms: _69  and  _71
REMARK   25  A    between atoms: _71  and  _72
REMARK   26  A    between atoms: _74  and  _76
REMARK   27  A    between atoms: _76  and  _77
REMARK   28  A    between atoms: _76  and  _79
REMARK   29  A    between atoms: _79  and  _80
REMARK   30  A    between atoms: _82  and  _84
REMARK   31  A    between atoms: _84  and  _85
REMARK   32  A    between atoms: _84  and  _87
REMARK   33  A    between atoms: _90  and  _92
REMARK   34  A    between atoms: _92  and  _93
REMARK   35  A    between atoms: _92  and  _95
REMARK   36  A    between atoms: _97  and  _99
REMARK   37  A    between atoms: _99  and  _100
REMARK   38  A    between atoms: _103  and  _105
REMARK   39  A    between atoms: _105  and  _106
REMARK   40  A    between atoms: _109  and  _111
REMARK   41  A    between atoms: _111  and  _112
REMARK   42  A    between atoms: _111  and  _114
REMARK   43  A    between atoms: _114  and  _115
REMARK   44  A    between atoms: _115  and  _116
REMARK   45  A    between atoms: _116  and  _117
REMARK   46  A    between atoms: _126  and  _128
REMARK   47  A    between atoms: _128  and  _129
REMARK   48  A    between atoms: _128  and  _131
REMARK   49  A    between atoms: _134  and  _136
REMARK   50  A    between atoms: _136  and  _137
REMARK   51  A    between atoms: _140  and  _142
REMARK   52  A    between atoms: _142  and  _143
REMARK   53  A    between atoms: _142  and  _145
REMARK   54  A    between atoms: _148  and  _150
REMARK   55  A    between atoms: _150  and  _151
REMARK   56  A    between atoms: _150  and  _153
REMARK   57  A    between atoms: _153  and  _154
REMARK   58  A    between atoms: _154  and  _155
REMARK   59  A    between atoms: _155  and  _156
REMARK   60  A    between atoms: _156  and  _157
REMARK   61  A    between atoms: _161  and  _163
REMARK   62  A    between atoms: _163  and  _164
REMARK   63  A    between atoms: _163  and  _166
REMARK   64  A    between atoms: _166  and  _167
REMARK   65  A    between atoms: _167  and  _168
REMARK   66  A    between atoms: _168  and  _169
REMARK   67  A    between atoms: _169  and  _170
REMARK   68  A    between atoms: _174  and  _176
REMARK   69  A    between atoms: _176  and  _177
REMARK   70  A    between atoms: _176  and  _179
REMARK   71  A    between atoms: _179  and  _180
REMARK   72  A    between atoms: _183  and  _185
REMARK   73  A    between atoms: _185  and  _186
REMARK   74  A    between atoms: _185  and  _188
REMARK   75  A    between atoms: _188  and  _189
REMARK   76  A    between atoms: _189  and  _190
REMARK   77  A    between atoms: _193  and  _195
REMARK   78  A    between atoms: _195  and  _196
REMARK   79  A    between atoms: _195  and  _198
REMARK   80  A    between atoms: _198  and  _199
REMARK   81  A    between atoms: _202  and  _204
REMARK   82  A    between atoms: _204  and  _205
REMARK   83  A    between atoms: _204  and  _207
REMARK   84  A    between atoms: _207  and  _208
REMARK   85  A    between atoms: _211  and  _213
REMARK   86  A    between atoms: _213  and  _214
REMARK   87  A    between atoms: _213  and  _216
REMARK   88  A    between atoms: _216  and  _217
REMARK   89  A    between atoms: _220  and  _222
REMARK   90  A    between atoms: _222  and  _223
REMARK   91  A    between atoms: _225  and  _227
REMARK   92  A    between atoms: _227  and  _228
REMARK   93  A    between atoms: _227  and  _230
REMARK   94  A    between atoms: _230  and  _231
REMARK   95  A    between atoms: _234  and  _236
REMARK   96  A    between atoms: _236  and  _237
REMARK   97  A    between atoms: _236  and  _239
REMARK   98  A    between atoms: _239  and  _240
REMARK   99  A    between atoms: _243  and  _245
REMARK  100  A    between atoms: _245  and  _246
REMARK  101  A    between atoms: _245  and  _248
REMARK  102  A    between atoms: _248  and  _249
REMARK  103  A    between atoms: _252  and  _254
REMARK  104  A    between atoms: _254  and  _255
REMARK  105  A    between atoms: _254  and  _257
REMARK  106  A    between atoms: _257  and  _258
REMARK  107  A    between atoms: _263  and  _264
REMARK  108  A    between atoms: _266  and  _268
REMARK  109  A    between atoms: _268  and  _269
REMARK  110  A    between atoms: _268  and  _271
REMARK  111  A    between atoms: _271  and  _272
REMARK  112  A    between atoms: _275  and  _277
REMARK  113  A    between atoms: _277  and  _278
REMARK  114  A    between atoms: _277  and  _280
REMARK  115  A    between atoms: _283  and  _285
REMARK  116  A    between atoms: _285  and  _286
REMARK  117  A    between atoms: _285  and  _288
REMARK  118  A    between atoms: _288  and  _289
REMARK  119  A    between atoms: _292  and  _294
REMARK  120  A    between atoms: _294  and  _295
REMARK  121  A    between atoms: _294  and  _297
REMARK  122  A    between atoms: _297  and  _298
REMARK  123  A    between atoms: _303  and  _305
REMARK  124  A    between atoms: _305  and  _306
REMARK  125  A    between atoms: _305  and  _308
REMARK  126  A    between atoms: _308  and  _309
REMARK  127  A    between atoms: _312  and  _314
REMARK  128  A    between atoms: _314  and  _315
REMARK  129  A    between atoms: _314  and  _317
REMARK  130  A    between atoms: _317  and  _318
REMARK  131  A    between atoms: _318  and  _319
REMARK  132  A    between atoms: _321  and  _323
REMARK  133  A    between atoms: _323  and  _324
REMARK  134  A    between atoms: _326  and  _328
REMARK  135  A    between atoms: _328  and  _329
REMARK  136  A    between atoms: _332  and  _334
REMARK  137  A    between atoms: _334  and  _335
REMARK  138  A    between atoms: _334  and  _337
REMARK  139  A    between atoms: _337  and  _338
REMARK  140  A    between atoms: _341  and  _343
REMARK  141  A    between atoms: _343  and  _344
REMARK  142  A    between atoms: _343  and  _346
REMARK  143  A    between atoms: _346  and  _347
REMARK  144  A    between atoms: _350  and  _352
REMARK  145  A    between atoms: _352  and  _353
REMARK  146  A    between atoms: _352  and  _355
REMARK  147  A    between atoms: _355  and  _356
REMARK  148  A    between atoms: _361  and  _363
REMARK  149  A    between atoms: _363  and  _364
REMARK  150  A    between atoms: _363  and  _366
REMARK  151  A    between atoms: _366  and  _367
REMARK  152  A    between atoms: _373  and  _374
REMARK  153  A    between atoms: _379  and  _381
REMARK  154  A    between atoms: _381  and  _382
REMARK  155  A    between atoms: _381  and  _384
REMARK  156  A    between atoms: _384  and  _385
REMARK  157  A    between atoms: _387  and  _389
REMARK  158  A    between atoms: _389  and  _390
REMARK  159  A    between atoms: _389  and  _392
REMARK  160  A    between atoms: _392  and  _393
REMARK  161  A    between atoms: _398  and  _400
REMARK  162  A    between atoms: _400  and  _401
REMARK  163  A    between atoms: _400  and  _403
REMARK  164  A    between atoms: _403  and  _404
REMARK  165  A    between atoms: _407  and  _409
REMARK  166  A    between atoms: _409  and  _410
REMARK  167  A    between atoms: _413  and  _415
REMARK  168  A    between atoms: _415  and  _416
REMARK  169  A    between atoms: _415  and  _418
REMARK  170  A    between atoms: _421  and  _423
REMARK  171  A    between atoms: _423  and  _424
REMARK  172  A    between atoms: _423  and  _426
REMARK  173  A    between atoms: _426  and  _427
REMARK  174  A    between atoms: _432  and  _434
REMARK  175  A    between atoms: _434  and  _435
REMARK  176  A    between atoms: _434  and  _437
REMARK  177  A    between atoms: _437  and  _438
REMARK  178  A    between atoms: _438  and  _439
REMARK  179  A    between atoms: _439  and  _440
REMARK  180  A    between atoms: _440  and  _441
REMARK  181  A    between atoms: _445  and  _447
REMARK  182  A    between atoms: _447  and  _448
REMARK  183  A    between atoms: _447  and  _450
REMARK  184  A    between atoms: _450  and  _451
REMARK  185  A    between atoms: _454  and  _456
REMARK  186  A    between atoms: _456  and  _457
REMARK  187  A    between atoms: _456  and  _459
REMARK  188  A    between atoms: _459  and  _460
REMARK  189  A    between atoms: _463  and  _465
REMARK  190  A    between atoms: _465  and  _466
REMARK  191  A    between atoms: _465  and  _468
REMARK  192  A    between atoms: _468  and  _469
REMARK  193  A    between atoms: _472  and  _474
REMARK  194  A    between atoms: _474  and  _475
REMARK  195  A    between atoms: _474  and  _477
REMARK  196  A    between atoms: _477  and  _478
REMARK  197  A    between atoms: _484  and  _486
REMARK  198  A    between atoms: _486  and  _487
REMARK  199  A    between atoms: _489  and  _491
REMARK  200  A    between atoms: _491  and  _492
REMARK  201  A    between atoms: _491  and  _494
REMARK  202  A    between atoms: _494  and  _495
REMARK                            x       y       z     vdW  Elec       q    Type
REMARK                         _______ _______ _______ _____ _____    ______ ____
ROOT
ATOM      1  CG  TRP A   1      34.855   2.968 -19.122  0.00  0.00    -0.002 A 
ATOM      2  CD1 TRP A   1      34.557   4.046 -18.324  0.00  0.00    +0.068 A 
ATOM      3  NE1 TRP A   1      33.213   4.122 -18.116  0.00  0.00    -0.352 N 
ATOM      4  HE1 TRP A   1      32.729   4.837 -17.537  0.00  0.00    +0.166 HD
ATOM      5  CE2 TRP A   1      32.602   3.099 -18.797  0.00  0.00    +0.056 A 
ATOM      6  CZ2 TRP A   1      31.245   2.759 -18.888  0.00  0.00    +0.017 A 
ATOM      7  CH2 TRP A   1      30.929   1.665 -19.641  0.00  0.00    +0.001 A 
ATOM      8  CZ3 TRP A   1      31.912   0.910 -20.303  0.00  0.00    +0.000 A 
ATOM      9  CE3 TRP A   1      33.249   1.246 -20.212  0.00  0.00    +0.001 A 
ATOM     10  CD2 TRP A   1      33.613   2.357 -19.447  0.00  0.00    +0.013 A 
ENDROOT
BRANCH   1  11
ATOM     11  CB  TRP A   1      36.197   2.555 -19.596  0.00  0.00    +0.053 C 
BRANCH  11  12
ATOM     12  CA  TRP A   1      37.138   2.030 -18.515  0.00  0.00    +0.137 C 
BRANCH  12  13
ATOM     13  N   TRP A   1      37.690   3.134 -17.745  0.00  0.00    -0.239 NA
ATOM     14  H   TRP A   1      38.128   3.928 -18.254  0.00  0.00    +0.142 HD
ENDBRANCH  12  13
BRANCH  12  15
ATOM     15  C   TRP A   1      38.244   1.225 -19.190  0.00  0.00    +0.224 C 
ATOM     16  O   TRP A   1      39.106   1.791 -19.895  0.00  0.00    -0.287 OA
ENDBRANCH  12  15
ENDBRANCH  11  12
ENDBRANCH   1  11
TORSDOF 4
REMARK  Name = ../refined-set-2016/3iw5/3iw5_pocket.pdb
REMARK  202 active torsions:
REMARK  status: ('A' for Active; 'I' for Inactive)
REMARK    1  A    between atoms: _1  and  _3
REMARK    2  A    between atoms: _3  and  _4
REMARK    3  A    between atoms: _3  and  _6
REMARK    4  A    between atoms: _6  and  _7
REMARK    5  A    between atoms: _17  and  _19
REMARK    6  A    between atoms: _19  and  _20
REMARK    7  A    between atoms: _19  and  _22
REMARK    8  A    between atoms: _22  and  _23
REMARK    9  A    between atoms: _26  and  _27
REMARK   10  A    between atoms: _32  and  _34
REMARK   11  A    between atoms: _34  and  _35
REMARK   12  A    between atoms: _34  and  _37
REMARK   13  A    between atoms: _40  and  _42
REMARK   14  A    between atoms: _42  and  _43
REMARK   15  A    between atoms: _45  and  _47
REMARK   16  A    between atoms: _47  and  _48
REMARK   17  A    between atoms: _47  and  _50
REMARK   18  A    between atoms: _50  and  _51
REMARK   19  A    between atoms: _53  and  _57
REMARK   20  A    between atoms: _57  and  _58
REMARK   21  A    between atoms: _57  and  _60
REMARK   22  A    between atoms: _60  and  _61
REMARK   23  A    between atoms: _66  and  _67
REMARK   24  A    between atoms: _69  and  _71
REMARK   25  A    between atoms: _71  and  _72
REMARK   26  A    between atoms: _74  and  _76
REMARK   27  A    between atoms: _76  and  _77
REMARK   28  A    between atoms: _76  and  _79
REMARK   29  A    between atoms: _79  and  _80
REMARK   30  A    between atoms: _82  and  _84
REMARK   31  A    between atoms: _84  and  _85
REMARK   32  A    between atoms: _84  and  _87
REMARK   33  A    between atoms: _90  and  _92
REMARK   34  A    between atoms: _92  and  _93
REMARK   35  A    between atoms: _92  and  _95
REMARK   36  A    between atoms: _97  and  _99
REMARK   37  A    between atoms: _99  and  _100
REMARK   38  A    between atoms: _103  and  _105
REMARK   39  A    between atoms: _105  and  _106
REMARK   40  A    between atoms: _109  and  _111
REMARK   41  A    between atoms: _111  and  _112
REMARK   42  A    between atoms: _111  and  _114
REMARK   43  A    between atoms: _114  and  _115
REMARK   44  A    between atoms: _115  and  _116
REMARK   45  A    between atoms: _116  and  _117
REMARK   46  A    between atoms: _126  and  _128
REMARK   47  A    between atoms: _128  and  _129
REMARK   48  A    between atoms: _128  and  _131
REMARK   49  A    between atoms: _134  and  _136
REMARK   50  A    between atoms: _136  and  _137
REMARK   51  A    between atoms: _140  and  _142
REMARK   52  A    between atoms: _142  and  _143
REMARK   53  A    between atoms: _142  and  _145
REMARK   54  A    between atoms: _148  and  _150
REMARK   55  A    between atoms: _150  and  _151
REMARK   56  A    between atoms: _150  and  _153
REMARK   57  A    between atoms: _153  and  _154
REMARK   58  A    between atoms: _154  and  _155
REMARK   59  A    between atoms: _155  and  _156
REMARK   60  A    between atoms: _156  and  _157
REMARK   61  A    between atoms: _161  and  _163
REMARK   62  A    between atoms: _163  and  _164
REMARK   63  A    between atoms: _163  and  _166
REMARK   64  A    between atoms: _166  and  _167
REMARK   65  A    between atoms: _167  and  _168
REMARK   66  A    between atoms: _168  and  _169
REMARK   67  A    between atoms: _169  and  _170
REMARK   68  A    between atoms: _174  and  _176
REMARK   69  A    between atoms: _176  and  _177
REMARK   70  A    between atoms: _176  and  _179
REMARK   71  A    between atoms: _179  and  _180
REMARK   72  A    between atoms: _183  and  _185
REMARK   73  A    between atoms: _185  and  _186
REMARK   74  A    between atoms: _185  and  _188
REMARK   75  A    between atoms: _188  and  _189
REMARK   76  A    between atoms: _189  and  _190
REMARK   77  A    between atoms: _193  and  _195
REMARK   78  A    between atoms: _195  and  _196
REMARK   79  A    between atoms: _195  and  _198
REMARK   80  A    between atoms: _198  and  _199
REMARK   81  A    between atoms: _202  and  _204
REMARK   82  A    between atoms: _204  and  _205
REMARK   83  A    between atoms: _204  and  _207
REMARK   84  A    between atoms: _207  and  _208
REMARK   85  A    between atoms: _211  and  _213
REMARK   86  A    between atoms: _213  and  _214
REMARK   87  A    between atoms: _213  and  _216
REMARK   88  A    between atoms: _216  and  _217
REMARK   89  A    between atoms: _220  and  _222
REMARK   90  A    between atoms: _222  and  _223
REMARK   91  A    between atoms: _225  and  _227
REMARK   92  A    between atoms: _227  and  _228
REMARK   93  A    between atoms: _227  and  _230
REMARK   94  A    between atoms: _230  and  _231
REMARK   95  A    between atoms: _234  and  _236
REMARK   96  A    between atoms: _236  and  _237
REMARK   97  A    between atoms: _236  and  _239
REMARK   98  A    between atoms: _239  and  _240
REMARK   99  A    between atoms: _243  and  _245
REMARK  100  A    between atoms: _245  and  _246
REMARK  101  A    between atoms: _245  and  _248
REMARK  102  A    between atoms: _248  and  _249
REMARK  103  A    between atoms: _252  and  _254
REMARK  104  A    between atoms: _254  and  _255
REMARK  105  A    between atoms: _254  and  _257
REMARK  106  A    between atoms: _257  and  _258
REMARK  107  A    between atoms: _263  and  _264
REMARK  108  A    between atoms: _266  and  _268
REMARK  109  A    between atoms: _268  and  _269
REMARK  110  A    between atoms: _268  and  _271
REMARK  111  A    between atoms: _271  and  _272
REMARK  112  A    between atoms: _275  and  _277
REMARK  113  A    between atoms: _277  and  _278
REMARK  114  A    between atoms: _277  and  _280
REMARK  115  A    between atoms: _283  and  _285
REMARK  116  A    between atoms: _285  and  _286
REMARK  117  A    between atoms: _285  and  _288
REMARK  118  A    between atoms: _288  and  _289
REMARK  119  A    between atoms: _292  and  _294
REMARK  120  A    between atoms: _294  and  _295
REMARK  121  A    between atoms: _294  and  _297
REMARK  122  A    between atoms: _297  and  _298
REMARK  123  A    between atoms: _303  and  _305
REMARK  124  A    between atoms: _305  and  _306
REMARK  125  A    between atoms: _305  and  _308
REMARK  126  A    between atoms: _308  and  _309
REMARK  127  A    between atoms: _312  and  _314
REMARK  128  A    between atoms: _314  and  _315
REMARK  129  A    between atoms: _314  and  _317
REMARK  130  A    between atoms: _317  and  _318
REMARK  131  A    between atoms: _318  and  _319
REMARK  132  A    between atoms: _321  and  _323
REMARK  133  A    between atoms: _323  and  _324
REMARK  134  A    between atoms: _326  and  _328
REMARK  135  A    between atoms: _328  and  _329
REMARK  136  A    between atoms: _332  and  _334
REMARK  137  A    between atoms: _334  and  _335
REMARK  138  A    between atoms: _334  and  _337
REMARK  139  A    between atoms: _337  and  _338
REMARK  140  A    between atoms: _341  and  _343
REMARK  141  A    between atoms: _343  and  _344
REMARK  142  A    between atoms: _343  and  _346
REMARK  143  A    between atoms: _346  and  _347
REMARK  144  A    between atoms: _350  and  _352
REMARK  145  A    between atoms: _352  and  _353
REMARK  146  A    between atoms: _352  and  _355
REMARK  147  A    between atoms: _355  and  _356
REMARK  148  A    between atoms: _361  and  _363
REMARK  149  A    between atoms: _363  and  _364
REMARK  150  A    between atoms: _363  and  _366
REMARK  151  A    between atoms: _366  and  _367
REMARK  152  A    between atoms: _373  and  _374
REMARK  153  A    between atoms: _379  and  _381
REMARK  154  A    between atoms: _381  and  _382
REMARK  155  A    between atoms: _381  and  _384
REMARK  156  A    between atoms: _384  and  _385
REMARK  157  A    between atoms: _387  and  _389
REMARK  158  A    between atoms: _389  and  _390
REMARK  159  A    between atoms: _389  and  _392
REMARK  160  A    between atoms: _392  and  _393
REMARK  161  A    between atoms: _398  and  _400
REMARK  162  A    between atoms: _400  and  _401
REMARK  163  A    between atoms: _400  and  _403
REMARK  164  A    between atoms: _403  and  _404
REMARK  165  A    between atoms: _407  and  _409
REMARK  166  A    between atoms: _409  and  _410
REMARK  167  A    between atoms: _413  and  _415
REMARK  168  A    between atoms: _415  and  _416
REMARK  169  A    between atoms: _415  and  _418
REMARK  170  A    between atoms: _421  and  _423
REMARK  171  A    between atoms: _423  and  _424
REMARK  172  A    between atoms: _423  and  _426
REMARK  173  A    between atoms: _426  and  _427
REMARK  174  A    between atoms: _432  and  _434
REMARK  175  A    between atoms: _434  and  _435
REMARK  176  A    between atoms: _434  and  _437
REMARK  177  A    between atoms: _437  and  _438
REMARK  178  A    between atoms: _438  and  _439
REMARK  179  A    between atoms: _439  and  _440
REMARK  180  A    between atoms: _440  and  _441
REMARK  181  A    between atoms: _445  and  _447
REMARK  182  A    between atoms: _447  and  _448
REMARK  183  A    between atoms: _447  and  _450
REMARK  184  A    between atoms: _450  and  _451
REMARK  185  A    between atoms: _454  and  _456
REMARK  186  A    between atoms: _456  and  _457
REMARK  187  A    between atoms: _456  and  _459
REMARK  188  A    between atoms: _459  and  _460
REMARK  189  A    between atoms: _463  and  _465
REMARK  190  A    between atoms: _465  and  _466
REMARK  191  A    between atoms: _465  and  _468
REMARK  192  A    between atoms: _468  and  _469
REMARK  193  A    between atoms: _472  and  _474
REMARK  194  A    between atoms: _474  and  _475
REMARK  195  A    between atoms: _474  and  _477
REMARK  196  A    between atoms: _477  and  _478
REMARK  197  A    between atoms: _484  and  _486
REMARK  198  A    between atoms: _486  and  _487
REMARK  199  A    between atoms: _489  and  _491
REMARK  200  A    between atoms: _491  and  _492
REMARK  201  A    between atoms: _491  and  _494
REMARK  202  A    between atoms: _494  and  _495
REMARK                            x       y       z     vdW  Elec       q    Type
REMARK                         _______ _______ _______ _____ _____    ______ ____
ROOT
ATOM      1  CA  VAL A   3      25.123   8.176 -22.178  0.00  0.00    +0.149 C 
ENDROOT
BRANCH   1   3
ATOM      2  C   PRO A   2      27.513   8.636 -22.374  0.00  0.00    +0.241 C 
ATOM      3  N   VAL A   3      26.535   7.852 -21.935  0.00  0.00    -0.297 N 
ATOM      4  H   VAL A   3      26.774   6.989 -21.407  0.00  0.00    +0.150 HD
ATOM      5  O   PRO A   2      27.313   9.646 -23.037  0.00  0.00    -0.273 OA
BRANCH   2   8
ATOM      6  C   SER A   1      29.733   7.636 -24.308  0.00  0.00    +0.244 C 
ATOM      7  N   PRO A   2      29.871   8.338 -23.170  0.00  0.00    -0.272 N 
ATOM      8  CA  PRO A   2      28.933   8.221 -22.028  0.00  0.00    +0.152 C 
ATOM      9  CB  PRO A   2      29.527   9.189 -20.991  0.00  0.00    +0.031 C 
ATOM     10  CG  PRO A   2      31.014   9.300 -21.395  0.00  0.00    +0.024 C 
ATOM     11  CD  PRO A   2      30.967   9.294 -22.884  0.00  0.00    +0.094 C 
ATOM     12  O   SER A   1      28.750   6.942 -24.522  0.00  0.00    -0.273 OA
BRANCH   6  13
ATOM     13  CA  SER A   1      30.856   7.768 -25.368  0.00  0.00    +0.175 C 
BRANCH  13  14
ATOM     14  N   SER A   1      31.502   6.519 -25.785  0.00  0.00    -0.236 NA
ATOM     15  H   SER A   1      30.919   5.665 -25.894  0.00  0.00    +0.142 HD
ENDBRANCH  13  14
BRANCH  13  16
ATOM     16  CB  SER A   1      30.315   8.512 -26.578  0.00  0.00    +0.163 C 
BRANCH  16  17
ATOM     17  OG  SER A   1      29.779   9.728 -26.124  0.00  0.00    -0.380 OA
ATOM     18  H   SER A   1      29.418  10.236 -26.893  0.00  0.00    +0.211 HD
ENDBRANCH  16  17
ENDBRANCH  13  16
ENDBRANCH   6  13
ENDBRANCH   2   8
ENDBRANCH   1   3
BRANCH   1  19
ATOM     19  C   VAL A   3      24.313   8.249 -20.882  0.00  0.00    +0.241 C 
ATOM     20  N   GLY A   4      24.906   7.794 -19.778  0.00  0.00    -0.295 N 
ATOM     21  H   GLY A   4      25.746   7.187 -19.859  0.00  0.00    +0.150 HD
ATOM     22  O   VAL A   3      23.182   8.734 -20.884  0.00  0.00    -0.273 OA
BRANCH  20  23
ATOM     23  CA  GLY A   4      24.392   8.137 -18.460  0.00  0.00    +0.176 C 
BRANCH  23  24
ATOM     24  C   GLY A   4      24.381   7.086 -17.365  0.00  0.00    +0.243 C 
ATOM     25  N   SER A   5      23.274   7.096 -16.623  0.00  0.00    -0.296 N 
ATOM     26  H   SER A   5      22.426   7.562 -17.003  0.00  0.00    +0.150 HD
ATOM     27  O   GLY A   4      25.328   6.288 -17.190  0.00  0.00    -0.273 OA
BRANCH  25  28
ATOM     28  CA  SER A   5      23.198   6.478 -15.292  0.00  0.00    +0.166 C 
BRANCH  28  29
ATOM     29  CB  SER A   5      22.743   5.013 -15.345  0.00  0.00    +0.229 C 
ATOM     30  OG  SER A   5      21.539   4.728 -15.416  0.00  0.00    -0.286 OA
ENDBRANCH  28  29
BRANCH  28  31
ATOM     31  C   SER A   5      22.257   7.311 -14.412  0.00  0.00    +0.165 C 
BRANCH  31  32
ATOM     32  O   SER A   5      22.140   8.620 -14.949  0.00  0.00    -0.380 OA
ATOM     33  H   SER A   5      21.533   9.156 -14.380  0.00  0.00    +0.211 HD
ENDBRANCH  31  32
ENDBRANCH  28  31
ENDBRANCH  25  28
ENDBRANCH  23  24
ENDBRANCH  20  23
ENDBRANCH   1  19
BRANCH   1  34
ATOM     34  CB  VAL A   3      24.470   7.240 -23.150  0.00  0.00    +0.027 C 
ATOM     35  CG2 VAL A   3      24.620   5.817 -22.685  0.00  0.00    +0.002 C 
ATOM     36  CG1 VAL A   3      25.054   7.438 -24.549  0.00  0.00    +0.002 C 
ENDBRANCH   1  34
TORSDOF 14
REMARK  Name = ../refined-set-2016/3iw5/3iw5_pocket.pdb
REMARK  202 active torsions:
REMARK  status: ('A' for Active; 'I' for Inactive)
REMARK    1  A    between atoms: _1  and  _3
REMARK    2  A    between atoms: _3  and  _4
REMARK    3  A    between atoms: _3  and  _6
REMARK    4  A    between atoms: _6  and  _7
REMARK    5  A    between atoms: _17  and  _19
REMARK    6  A    between atoms: _19  and  _20
REMARK    7  A    between atoms: _19  and  _22
REMARK    8  A    between atoms: _22  and  _23
REMARK    9  A    between atoms: _26  and  _27
REMARK   10  A    between atoms: _32  and  _34
REMARK   11  A    between atoms: _34  and  _35
REMARK   12  A    between atoms: _34  and  _37
REMARK   13  A    between atoms: _40  and  _42
REMARK   14  A    between atoms: _42  and  _43
REMARK   15  A    between atoms: _45  and  _47
REMARK   16  A    between atoms: _47  and  _48
REMARK   17  A    between atoms: _47  and  _50
REMARK   18  A    between atoms: _50  and  _51
REMARK   19  A    between atoms: _53  and  _57
REMARK   20  A    between atoms: _57  and  _58
REMARK   21  A    between atoms: _57  and  _60
REMARK   22  A    between atoms: _60  and  _61
REMARK   23  A    between atoms: _66  and  _67
REMARK   24  A    between atoms: _69  and  _71
REMARK   25  A    between atoms: _71  and  _72
REMARK   26  A    between atoms: _74  and  _76
REMARK   27  A    between atoms: _76  and  _77
REMARK   28  A    between atoms: _76  and  _79
REMARK   29  A    between atoms: _79  and  _80
REMARK   30  A    between atoms: _82  and  _84
REMARK   31  A    between atoms: _84  and  _85
REMARK   32  A    between atoms: _84  and  _87
REMARK   33  A    between atoms: _90  and  _92
REMARK   34  A    between atoms: _92  and  _93
REMARK   35  A    between atoms: _92  and  _95
REMARK   36  A    between atoms: _97  and  _99
REMARK   37  A    between atoms: _99  and  _100
REMARK   38  A    between atoms: _103  and  _105
REMARK   39  A    between atoms: _105  and  _106
REMARK   40  A    between atoms: _109  and  _111
REMARK   41  A    between atoms: _111  and  _112
REMARK   42  A    between atoms: _111  and  _114
REMARK   43  A    between atoms: _114  and  _115
REMARK   44  A    between atoms: _115  and  _116
REMARK   45  A    between atoms: _116  and  _117
REMARK   46  A    between atoms: _126  and  _128
REMARK   47  A    between atoms: _128  and  _129
REMARK   48  A    between atoms: _128  and  _131
REMARK   49  A    between atoms: _134  and  _136
REMARK   50  A    between atoms: _136  and  _137
REMARK   51  A    between atoms: _140  and  _142
REMARK   52  A    between atoms: _142  and  _143
REMARK   53  A    between atoms: _142  and  _145
REMARK   54  A    between atoms: _148  and  _150
REMARK   55  A    between atoms: _150  and  _151
REMARK   56  A    between atoms: _150  and  _153
REMARK   57  A    between atoms: _153  and  _154
REMARK   58  A    between atoms: _154  and  _155
REMARK   59  A    between atoms: _155  and  _156
REMARK   60  A    between atoms: _156  and  _157
REMARK   61  A    between atoms: _161  and  _163
REMARK   62  A    between atoms: _163  and  _164
REMARK   63  A    between atoms: _163  and  _166
REMARK   64  A    between atoms: _166  and  _167
REMARK   65  A    between atoms: _167  and  _168
REMARK   66  A    between atoms: _168  and  _169
REMARK   67  A    between atoms: _169  and  _170
REMARK   68  A    between atoms: _174  and  _176
REMARK   69  A    between atoms: _176  and  _177
REMARK   70  A    between atoms: _176  and  _179
REMARK   71  A    between atoms: _179  and  _180
REMARK   72  A    between atoms: _183  and  _185
REMARK   73  A    between atoms: _185  and  _186
REMARK   74  A    between atoms: _185  and  _188
REMARK   75  A    between atoms: _188  and  _189
REMARK   76  A    between atoms: _189  and  _190
REMARK   77  A    between atoms: _193  and  _195
REMARK   78  A    between atoms: _195  and  _196
REMARK   79  A    between atoms: _195  and  _198
REMARK   80  A    between atoms: _198  and  _199
REMARK   81  A    between atoms: _202  and  _204
REMARK   82  A    between atoms: _204  and  _205
REMARK   83  A    between atoms: _204  and  _207
REMARK   84  A    between atoms: _207  and  _208
REMARK   85  A    between atoms: _211  and  _213
REMARK   86  A    between atoms: _213  and  _214
REMARK   87  A    between atoms: _213  and  _216
REMARK   88  A    between atoms: _216  and  _217
REMARK   89  A    between atoms: _220  and  _222
REMARK   90  A    between atoms: _222  and  _223
REMARK   91  A    between atoms: _225  and  _227
REMARK   92  A    between atoms: _227  and  _228
REMARK   93  A    between atoms: _227  and  _230
REMARK   94  A    between atoms: _230  and  _231
REMARK   95  A    between atoms: _234  and  _236
REMARK   96  A    between atoms: _236  and  _237
REMARK   97  A    between atoms: _236  and  _239
REMARK   98  A    between atoms: _239  and  _240
REMARK   99  A    between atoms: _243  and  _245
REMARK  100  A    between atoms: _245  and  _246
REMARK  101  A    between atoms: _245  and  _248
REMARK  102  A    between atoms: _248  and  _249
REMARK  103  A    between atoms: _252  and  _254
REMARK  104  A    between atoms: _254  and  _255
REMARK  105  A    between atoms: _254  and  _257
REMARK  106  A    between atoms: _257  and  _258
REMARK  107  A    between atoms: _263  and  _264
REMARK  108  A    between atoms: _266  and  _268
REMARK  109  A    between atoms: _268  and  _269
REMARK  110  A    between atoms: _268  and  _271
REMARK  111  A    between atoms: _271  and  _272
REMARK  112  A    between atoms: _275  and  _277
REMARK  113  A    between atoms: _277  and  _278
REMARK  114  A    between atoms: _277  and  _280
REMARK  115  A    between atoms: _283  and  _285
REMARK  116  A    between atoms: _285  and  _286
REMARK  117  A    between atoms: _285  and  _288
REMARK  118  A    between atoms: _288  and  _289
REMARK  119  A    between atoms: _292  and  _294
REMARK  120  A    between atoms: _294  and  _295
REMARK  121  A    between atoms: _294  and  _297
REMARK  122  A    between atoms: _297  and  _298
REMARK  123  A    between atoms: _303  and  _305
REMARK  124  A    between atoms: _305  and  _306
REMARK  125  A    between atoms: _305  and  _308
REMARK  126  A    between atoms: _308  and  _309
REMARK  127  A    between atoms: _312  and  _314
REMARK  128  A    between atoms: _314  and  _315
REMARK  129  A    between atoms: _314  and  _317
REMARK  130  A    between atoms: _317  and  _318
REMARK  131  A    between atoms: _318  and  _319
REMARK  132  A    between atoms: _321  and  _323
REMARK  133  A    between atoms: _323  and  _324
REMARK  134  A    between atoms: _326  and  _328
REMARK  135  A    between atoms: _328  and  _329
REMARK  136  A    between atoms: _332  and  _334
REMARK  137  A    between atoms: _334  and  _335
REMARK  138  A    between atoms: _334  and  _337
REMARK  139  A    between atoms: _337  and  _338
REMARK  140  A    between atoms: _341  and  _343
REMARK  141  A    between atoms: _343  and  _344
REMARK  142  A    between atoms: _343  and  _346
REMARK  143  A    between atoms: _346  and  _347
REMARK  144  A    between atoms: _350  and  _352
REMARK  145  A    between atoms: _352  and  _353
REMARK  146  A    between atoms: _352  and  _355
REMARK  147  A    between atoms: _355  and  _356
REMARK  148  A    between atoms: _361  and  _363
REMARK  149  A    between atoms: _363  and  _364
REMARK  150  A    between atoms: _363  and  _366
REMARK  151  A    between atoms: _366  and  _367
REMARK  152  A    between atoms: _373  and  _374
REMARK  153  A    between atoms: _379  and  _381
REMARK  154  A    between atoms: _381  and  _382
REMARK  155  A    between atoms: _381  and  _384
REMARK  156  A    between atoms: _384  and  _385
REMARK  157  A    between atoms: _387  and  _389
REMARK  158  A    between atoms: _389  and  _390
REMARK  159  A    between atoms: _389  and  _392
REMARK  160  A    between atoms: _392  and  _393
REMARK  161  A    between atoms: _398  and  _400
REMARK  162  A    between atoms: _400  and  _401
REMARK  163  A    between atoms: _400  and  _403
REMARK  164  A    between atoms: _403  and  _404
REMARK  165  A    between atoms: _407  and  _409
REMARK  166  A    between atoms: _409  and  _410
REMARK  167  A    between atoms: _413  and  _415
REMARK  168  A    between atoms: _415  and  _416
REMARK  169  A    between atoms: _415  and  _418
REMARK  170  A    between atoms: _421  and  _423
REMARK  171  A    between atoms: _423  and  _424
REMARK  172  A    between atoms: _423  and  _426
REMARK  173  A    between atoms: _426  and  _427
REMARK  174  A    between atoms: _432  and  _434
REMARK  175  A    between atoms: _434  and  _435
REMARK  176  A    between atoms: _434  and  _437
REMARK  177  A    between atoms: _437  and  _438
REMARK  178  A    between atoms: _438  and  _439
REMARK  179  A    between atoms: _439  and  _440
REMARK  180  A    between atoms: _440  and  _441
REMARK  181  A    between atoms: _445  and  _447
REMARK  182  A    between atoms: _447  and  _448
REMARK  183  A    between atoms: _447  and  _450
REMARK  184  A    between atoms: _450  and  _451
REMARK  185  A    between atoms: _454  and  _456
REMARK  186  A    between atoms: _456  and  _457
REMARK  187  A    between atoms: _456  and  _459
REMARK  188  A    between atoms: _459  and  _460
REMARK  189  A    between atoms: _463  and  _465
REMARK  190  A    between atoms: _465  and  _466
REMARK  191  A    between atoms: _465  and  _468
REMARK  192  A    between atoms: _468  and  _469
REMARK  193  A    between atoms: _472  and  _474
REMARK  194  A    between atoms: _474  and  _475
REMARK  195  A    between atoms: _474  and  _477
REMARK  196  A    between atoms: _477  and  _478
REMARK  197  A    between atoms: _484  and  _486
REMARK  198  A    between atoms: _486  and  _487
REMARK  199  A    between atoms: _489  and  _491
REMARK  200  A    between atoms: _491  and  _492
REMARK  201  A    between atoms: _491  and  _494
REMARK  202  A    between atoms: _494  and  _495
REMARK                            x       y       z     vdW  Elec       q    Type
REMARK                         _______ _______ _______ _____ _____    ______ ____
ROOT
ATOM      1  C   SER A   3      27.763   2.975 -17.625  0.00  0.00    +0.243 C 
ATOM      2  O   SER A   3      28.221   1.842 -17.822  0.00  0.00    -0.273 OA
ATOM      3  N   VAL A   4      27.213   3.719 -18.565  0.00  0.00    -0.297 N 
ATOM      4  H   VAL A   4      26.984   4.710 -18.349  0.00  0.00    +0.150 HD
ENDROOT
BRANCH   3   5
ATOM      5  CA  VAL A   4      26.920   3.214 -19.869  0.00  0.00    +0.149 C 
BRANCH   5   6
ATOM      6  C   VAL A   4      27.563   4.182 -20.846  0.00  0.00    +0.241 C 
ATOM      7  O   VAL A   4      27.475   5.395 -20.692  0.00  0.00    -0.273 OA
ATOM      8  N   CYS A   5      28.283   3.614 -21.800  0.00  0.00    -0.296 N 
ATOM      9  H   CYS A   5      28.518   2.606 -21.695  0.00  0.00    +0.150 HD
BRANCH   8  10
ATOM     10  CA  CYS A   5      28.770   4.306 -22.989  0.00  0.00    +0.160 C 
BRANCH  10  11
ATOM     11  C   CYS A   5      28.211   3.603 -24.230  0.00  0.00    +0.242 C 
ATOM     12  O   CYS A   5      28.111   2.359 -24.267  0.00  0.00    -0.273 OA
ATOM     13  N   ALA A   6      27.827   4.397 -25.222  0.00  0.00    -0.297 N 
ATOM     14  H   ALA A   6      27.659   5.405 -25.030  0.00  0.00    +0.150 HD
BRANCH  13  15
ATOM     15  CA  ALA A   6      27.636   3.890 -26.571  0.00  0.00    +0.149 C 
ATOM     16  CB  ALA A   6      26.893   4.904 -27.455  0.00  0.00    +0.031 C 
BRANCH  15  17
ATOM     17  C   ALA A   6      29.030   3.675 -27.092  0.00  0.00    +0.241 C 
ATOM     18  O   ALA A   6      29.997   4.281 -26.612  0.00  0.00    -0.273 OA
ATOM     19  N   ALA A   7      29.157   2.780 -28.050  0.00  0.00    -0.298 N 
ATOM     20  H   ALA A   7      28.321   2.253 -28.373  0.00  0.00    +0.150 HD
BRANCH  19  21
ATOM     21  CA  ALA A   7      30.450   2.519 -28.662  0.00  0.00    +0.137 C 
ATOM     22  CB  ALA A   7      31.358   1.650 -27.745  0.00  0.00    +0.030 C 
BRANCH  21  23
ATOM     23  C   ALA A   7      30.205   1.847 -29.996  0.00  0.00    +0.227 C 
ATOM     24  O   ALA A   7      29.070   1.527 -30.375  0.00  0.00    -0.286 OA
ENDBRANCH  21  23
ENDBRANCH  19  21
ENDBRANCH  15  17
ENDBRANCH  13  15
ENDBRANCH  10  11
BRANCH  10  25
ATOM     25  CB  CYS A   5      30.289   4.246 -23.047  0.00  0.00    +0.098 C 
ATOM     26  SG  CYS A   5      31.108   5.072 -21.695  0.00  0.00    -0.080 S 
ENDBRANCH  10  25
ENDBRANCH   8  10
ENDBRANCH   5   6
BRANCH   5  27
ATOM     27  CB  VAL A   4      25.364   3.100 -20.092  0.00  0.00    +0.027 C 
ATOM     28  CG2 VAL A   4      24.704   2.304 -18.967  0.00  0.00    +0.002 C 
ATOM     29  CG1 VAL A   4      25.057   2.453 -21.404  0.00  0.00    +0.002 C 
ENDBRANCH   5  27
ENDBRANCH   3   5
BRANCH   1  30
ATOM     30  CA  SER A   3      27.764   3.583 -16.253  0.00  0.00    +0.178 C 
BRANCH  30  33
ATOM     31  C   GLY A   2      26.806   2.522 -14.319  0.00  0.00    +0.243 C 
ATOM     32  O   GLY A   2      25.934   3.415 -14.216  0.00  0.00    -0.273 OA
ATOM     33  N   SER A   3      27.655   2.479 -15.330  0.00  0.00    -0.295 N 
ATOM     34  H   SER A   3      28.253   1.638 -15.463  0.00  0.00    +0.150 HD
BRANCH  31  35
ATOM     35  CA  GLY A   2      27.028   1.437 -13.272  0.00  0.00    +0.176 C 
BRANCH  35  38
ATOM     36  C   TYR A   1      25.349   0.493 -11.733  0.00  0.00    +0.203 C 
ATOM     37  O   TYR A   1      25.369   1.449 -10.965  0.00  0.00    -0.277 OA
ATOM     38  N   GLY A   2      25.974   0.475 -12.918  0.00  0.00    -0.298 N 
ATOM     39  H   GLY A   2      25.703  -0.248 -13.615  0.00  0.00    +0.150 HD
BRANCH  36  40
ATOM     40  CA  TYR A   1      24.620  -0.778 -11.330  0.00  0.00    +0.017 C 
BRANCH  40  41
ATOM     41  N   TYR A   1      23.215  -1.015 -11.765  0.00  0.00    +0.388 N 
ATOM     42  H1  TYR A   1      22.889  -1.930 -11.395  0.00  0.00    -0.089 HD
ATOM     43  H2  TYR A   1      22.607  -0.255 -11.399  0.00  0.00    -0.089 HD
ATOM     44  H3  TYR A   1      23.172  -1.025 -12.804  0.00  0.00    -0.089 HD
ENDBRANCH  40  41
BRANCH  40  45
ATOM     45  CB  TYR A   1      25.538  -1.962 -11.678  0.00  0.00    +0.013 C 
BRANCH  45  46
ATOM     46  CG  TYR A   1      25.757  -2.820 -10.471  0.00  0.00    -0.024 A 
ATOM     47  CD2 TYR A   1      26.012  -2.227  -9.236  0.00  0.00    -0.001 A 
ATOM     48  CE2 TYR A   1      26.179  -2.979  -8.129  0.00  0.00    +0.036 A 
ATOM     49  CZ  TYR A   1      26.095  -4.349  -8.239  0.00  0.00    +0.134 A 
ATOM     50  CE1 TYR A   1      25.860  -4.970  -9.446  0.00  0.00    +0.036 A 
ATOM     51  CD1 TYR A   1      25.679  -4.204 -10.548  0.00  0.00    -0.001 A 
BRANCH  49  52
ATOM     52  OH  TYR A   1      26.272  -5.088  -7.110  0.00  0.00    -0.506 OA
ATOM     53  HH  TYR A   1      27.054  -5.684  -7.226  0.00  0.00    +0.292 HD
ENDBRANCH  49  52
ENDBRANCH  45  46
ENDBRANCH  40  45
ENDBRANCH  36  40
ENDBRANCH  35  38
ENDBRANCH  31  35
ENDBRANCH  30  33
BRANCH  30  54
ATOM     54  CB  SER A   3      29.041   4.327 -15.973  0.00  0.00    +0.166 C 
BRANCH  54  55
ATOM     55  OG  SER A   3      29.847   3.545 -15.117  0.00  0.00    -0.380 OA
ATOM     56  H   SER A   3      30.690   4.028 -14.927  0.00  0.00    +0.211 HD
ENDBRANCH  54  55
ENDBRANCH  30  54
ENDBRANCH   1  30
TORSDOF 21
REMARK  Name = ../refined-set-2016/3iw5/3iw5_pocket.pdb
REMARK  202 active torsions:
REMARK  status: ('A' for Active; 'I' for Inactive)
REMARK    1  A    between atoms: _1  and  _3
REMARK    2  A    between atoms: _3  and  _4
REMARK    3  A    between atoms: _3  and  _6
REMARK    4  A    between atoms: _6  and  _7
REMARK    5  A    between atoms: _17  and  _19
REMARK    6  A    between atoms: _19  and  _20
REMARK    7  A    between atoms: _19  and  _22
REMARK    8  A    between atoms: _22  and  _23
REMARK    9  A    between atoms: _26  and  _27
REMARK   10  A    between atoms: _32  and  _34
REMARK   11  A    between atoms: _34  and  _35
REMARK   12  A    between atoms: _34  and  _37
REMARK   13  A    between atoms: _40  and  _42
REMARK   14  A    between atoms: _42  and  _43
REMARK   15  A    between atoms: _45  and  _47
REMARK   16  A    between atoms: _47  and  _48
REMARK   17  A    between atoms: _47  and  _50
REMARK   18  A    between atoms: _50  and  _51
REMARK   19  A    between atoms: _53  and  _57
REMARK   20  A    between atoms: _57  and  _58
REMARK   21  A    between atoms: _57  and  _60
REMARK   22  A    between atoms: _60  and  _61
REMARK   23  A    between atoms: _66  and  _67
REMARK   24  A    between atoms: _69  and  _71
REMARK   25  A    between atoms: _71  and  _72
REMARK   26  A    between atoms: _74  and  _76
REMARK   27  A    between atoms: _76  and  _77
REMARK   28  A    between atoms: _76  and  _79
REMARK   29  A    between atoms: _79  and  _80
REMARK   30  A    between atoms: _82  and  _84
REMARK   31  A    between atoms: _84  and  _85
REMARK   32  A    between atoms: _84  and  _87
REMARK   33  A    between atoms: _90  and  _92
REMARK   34  A    between atoms: _92  and  _93
REMARK   35  A    between atoms: _92  and  _95
REMARK   36  A    between atoms: _97  and  _99
REMARK   37  A    between atoms: _99  and  _100
REMARK   38  A    between atoms: _103  and  _105
REMARK   39  A    between atoms: _105  and  _106
REMARK   40  A    between atoms: _109  and  _111
REMARK   41  A    between atoms: _111  and  _112
REMARK   42  A    between atoms: _111  and  _114
REMARK   43  A    between atoms: _114  and  _115
REMARK   44  A    between atoms: _115  and  _116
REMARK   45  A    between atoms: _116  and  _117
REMARK   46  A    between atoms: _126  and  _128
REMARK   47  A    between atoms: _128  and  _129
REMARK   48  A    between atoms: _128  and  _131
REMARK   49  A    between atoms: _134  and  _136
REMARK   50  A    between atoms: _136  and  _137
REMARK   51  A    between atoms: _140  and  _142
REMARK   52  A    between atoms: _142  and  _143
REMARK   53  A    between atoms: _142  and  _145
REMARK   54  A    between atoms: _148  and  _150
REMARK   55  A    between atoms: _150  and  _151
REMARK   56  A    between atoms: _150  and  _153
REMARK   57  A    between atoms: _153  and  _154
REMARK   58  A    between atoms: _154  and  _155
REMARK   59  A    between atoms: _155  and  _156
REMARK   60  A    between atoms: _156  and  _157
REMARK   61  A    between atoms: _161  and  _163
REMARK   62  A    between atoms: _163  and  _164
REMARK   63  A    between atoms: _163  and  _166
REMARK   64  A    between atoms: _166  and  _167
REMARK   65  A    between atoms: _167  and  _168
REMARK   66  A    between atoms: _168  and  _169
REMARK   67  A    between atoms: _169  and  _170
REMARK   68  A    between atoms: _174  and  _176
REMARK   69  A    between atoms: _176  and  _177
REMARK   70  A    between atoms: _176  and  _179
REMARK   71  A    between atoms: _179  and  _180
REMARK   72  A    between atoms: _183  and  _185
REMARK   73  A    between atoms: _185  and  _186
REMARK   74  A    between atoms: _185  and  _188
REMARK   75  A    between atoms: _188  and  _189
REMARK   76  A    between atoms: _189  and  _190
REMARK   77  A    between atoms: _193  and  _195
REMARK   78  A    between atoms: _195  and  _196
REMARK   79  A    between atoms: _195  and  _198
REMARK   80  A    between atoms: _198  and  _199
REMARK   81  A    between atoms: _202  and  _204
REMARK   82  A    between atoms: _204  and  _205
REMARK   83  A    between atoms: _204  and  _207
REMARK   84  A    between atoms: _207  and  _208
REMARK   85  A    between atoms: _211  and  _213
REMARK   86  A    between atoms: _213  and  _214
REMARK   87  A    between atoms: _213  and  _216
REMARK   88  A    between atoms: _216  and  _217
REMARK   89  A    between atoms: _220  and  _222
REMARK   90  A    between atoms: _222  and  _223
REMARK   91  A    between atoms: _225  and  _227
REMARK   92  A    between atoms: _227  and  _228
REMARK   93  A    between atoms: _227  and  _230
REMARK   94  A    between atoms: _230  and  _231
REMARK   95  A    between atoms: _234  and  _236
REMARK   96  A    between atoms: _236  and  _237
REMARK   97  A    between atoms: _236  and  _239
REMARK   98  A    between atoms: _239  and  _240
REMARK   99  A    between atoms: _243  and  _245
REMARK  100  A    between atoms: _245  and  _246
REMARK  101  A    between atoms: _245  and  _248
REMARK  102  A    between atoms: _248  and  _249
REMARK  103  A    between atoms: _252  and  _254
REMARK  104  A    between atoms: _254  and  _255
REMARK  105  A    between atoms: _254  and  _257
REMARK  106  A    between atoms: _257  and  _258
REMARK  107  A    between atoms: _263  and  _264
REMARK  108  A    between atoms: _266  and  _268
REMARK  109  A    between atoms: _268  and  _269
REMARK  110  A    between atoms: _268  and  _271
REMARK  111  A    between atoms: _271  and  _272
REMARK  112  A    between atoms: _275  and  _277
REMARK  113  A    between atoms: _277  and  _278
REMARK  114  A    between atoms: _277  and  _280
REMARK  115  A    between atoms: _283  and  _285
REMARK  116  A    between atoms: _285  and  _286
REMARK  117  A    between atoms: _285  and  _288
REMARK  118  A    between atoms: _288  and  _289
REMARK  119  A    between atoms: _292  and  _294
REMARK  120  A    between atoms: _294  and  _295
REMARK  121  A    between atoms: _294  and  _297
REMARK  122  A    between atoms: _297  and  _298
REMARK  123  A    between atoms: _303  and  _305
REMARK  124  A    between atoms: _305  and  _306
REMARK  125  A    between atoms: _305  and  _308
REMARK  126  A    between atoms: _308  and  _309
REMARK  127  A    between atoms: _312  and  _314
REMARK  128  A    between atoms: _314  and  _315
REMARK  129  A    between atoms: _314  and  _317
REMARK  130  A    between atoms: _317  and  _318
REMARK  131  A    between atoms: _318  and  _319
REMARK  132  A    between atoms: _321  and  _323
REMARK  133  A    between atoms: _323  and  _324
REMARK  134  A    between atoms: _326  and  _328
REMARK  135  A    between atoms: _328  and  _329
REMARK  136  A    between atoms: _332  and  _334
REMARK  137  A    between atoms: _334  and  _335
REMARK  138  A    between atoms: _334  and  _337
REMARK  139  A    between atoms: _337  and  _338
REMARK  140  A    between atoms: _341  and  _343
REMARK  141  A    between atoms: _343  and  _344
REMARK  142  A    between atoms: _343  and  _346
REMARK  143  A    between atoms: _346  and  _347
REMARK  144  A    between atoms: _350  and  _352
REMARK  145  A    between atoms: _352  and  _353
REMARK  146  A    between atoms: _352  and  _355
REMARK  147  A    between atoms: _355  and  _356
REMARK  148  A    between atoms: _361  and  _363
REMARK  149  A    between atoms: _363  and  _364
REMARK  150  A    between atoms: _363  and  _366
REMARK  151  A    between atoms: _366  and  _367
REMARK  152  A    between atoms: _373  and  _374
REMARK  153  A    between atoms: _379  and  _381
REMARK  154  A    between atoms: _381  and  _382
REMARK  155  A    between atoms: _381  and  _384
REMARK  156  A    between atoms: _384  and  _385
REMARK  157  A    between atoms: _387  and  _389
REMARK  158  A    between atoms: _389  and  _390
REMARK  159  A    between atoms: _389  and  _392
REMARK  160  A    between atoms: _392  and  _393
REMARK  161  A    between atoms: _398  and  _400
REMARK  162  A    between atoms: _400  and  _401
REMARK  163  A    between atoms: _400  and  _403
REMARK  164  A    between atoms: _403  and  _404
REMARK  165  A    between atoms: _407  and  _409
REMARK  166  A    between atoms: _409  and  _410
REMARK  167  A    between atoms: _413  and  _415
REMARK  168  A    between atoms: _415  and  _416
REMARK  169  A    between atoms: _415  and  _418
REMARK  170  A    between atoms: _421  and  _423
REMARK  171  A    between atoms: _423  and  _424
REMARK  172  A    between atoms: _423  and  _426
REMARK  173  A    between atoms: _426  and  _427
REMARK  174  A    between atoms: _432  and  _434
REMARK  175  A    between atoms: _434  and  _435
REMARK  176  A    between atoms: _434  and  _437
REMARK  177  A    between atoms: _437  and  _438
REMARK  178  A    between atoms: _438  and  _439
REMARK  179  A    between atoms: _439  and  _440
REMARK  180  A    between atoms: _440  and  _441
REMARK  181  A    between atoms: _445  and  _447
REMARK  182  A    between atoms: _447  and  _448
REMARK  183  A    between atoms: _447  and  _450
REMARK  184  A    between atoms: _450  and  _451
REMARK  185  A    between atoms: _454  and  _456
REMARK  186  A    between atoms: _456  and  _457
REMARK  187  A    between atoms: _456  and  _459
REMARK  188  A    between atoms: _459  and  _460
REMARK  189  A    between atoms: _463  and  _465
REMARK  190  A    between atoms: _465  and  _466
REMARK  191  A    between atoms: _465  and  _468
REMARK  192  A    between atoms: _468  and  _469
REMARK  193  A    between atoms: _472  and  _474
REMARK  194  A    between atoms: _474  and  _475
REMARK  195  A    between atoms: _474  and  _477
REMARK  196  A    between atoms: _477  and  _478
REMARK  197  A    between atoms: _484  and  _486
REMARK  198  A    between atoms: _486  and  _487
REMARK  199  A    between atoms: _489  and  _491
REMARK  200  A    between atoms: _491  and  _492
REMARK  201  A    between atoms: _491  and  _494
REMARK  202  A    between atoms: _494  and  _495
REMARK                            x       y       z     vdW  Elec       q    Type
REMARK                         _______ _______ _______ _____ _____    ______ ____
ROOT
ATOM      1  CA  VAL A   4      28.451  -0.986 -22.822  0.00  0.00    +0.149 C 
ENDROOT
BRANCH   1   3
ATOM      2  C   ALA A   3      26.716  -0.761 -24.547  0.00  0.00    +0.241 C 
ATOM      3  N   VAL A   4      27.539  -0.194 -23.666  0.00  0.00    -0.297 N 
ATOM      4  H   VAL A   4      27.538   0.842 -23.571  0.00  0.00    +0.150 HD
ATOM      5  O   ALA A   3      26.645  -1.980 -24.736  0.00  0.00    -0.273 OA
BRANCH   2   6
ATOM      6  CA  ALA A   3      25.887   0.163 -25.395  0.00  0.00    +0.149 C 
ATOM      7  CB  ALA A   3      24.502   0.355 -24.823  0.00  0.00    +0.031 C 
BRANCH   6   9
ATOM      8  C   VAL A   2      26.495  -0.063 -27.721  0.00  0.00    +0.241 C 
ATOM      9  N   ALA A   3      25.829  -0.533 -26.666  0.00  0.00    -0.297 N 
ATOM     10  H   ALA A   3      25.265  -1.403 -26.755  0.00  0.00    +0.150 HD
ATOM     11  O   VAL A   2      27.032   1.052 -27.731  0.00  0.00    -0.273 OA
BRANCH   8  12
ATOM     12  CA  VAL A   2      26.577  -0.980 -28.941  0.00  0.00    +0.148 C 
BRANCH  12  14
ATOM     13  C   ARG A   1      26.301  -0.544 -31.338  0.00  0.00    +0.238 C 
ATOM     14  N   VAL A   2      26.856  -0.203 -30.168  0.00  0.00    -0.297 N 
ATOM     15  H   VAL A   2      27.492   0.619 -30.122  0.00  0.00    +0.150 HD
ATOM     16  O   ARG A   1      25.486  -1.495 -31.443  0.00  0.00    -0.274 OA
BRANCH  13  17
ATOM     17  CA  ARG A   1      26.705   0.269 -32.586  0.00  0.00    +0.145 C 
BRANCH  17  18
ATOM     18  N   ARG A   1      26.637  -0.697 -33.691  0.00  0.00    -0.238 NA
ATOM     19  H   ARG A   1      25.873  -0.619 -34.392  0.00  0.00    +0.142 HD
ENDBRANCH  17  18
BRANCH  17  20
ATOM     20  CB  ARG A   1      25.758   1.479 -32.736  0.00  0.00    +0.030 C 
BRANCH  20  21
ATOM     21  CG  ARG A   1      25.614   2.213 -34.094  0.00  0.00    +0.045 C 
BRANCH  21  22
ATOM     22  CD  ARG A   1      26.602   3.364 -34.330  0.00  0.00    +0.174 C 
BRANCH  22  23
ATOM     23  NE  ARG A   1      26.487   4.553 -33.457  0.00  0.00    -0.265 N 
ATOM     24  CZ  ARG A   1      27.263   4.782 -32.379  0.00  0.00    +0.342 C 
ATOM     25  NH2 ARG A   1      27.115   5.888 -31.640  0.00  0.00    -0.292 N 
ATOM     26 HH21 ARG A   1      27.724   6.046 -30.812  0.00  0.00    +0.255 HD
ATOM     27 HH22 ARG A   1      26.391   6.590 -31.894  0.00  0.00    +0.255 HD
ATOM     28  NH1 ARG A   1      28.188   3.893 -32.020  0.00  0.00    -0.292 N 
ATOM     29 HH11 ARG A   1      28.786   4.072 -31.188  0.00  0.00    +0.255 HD
ATOM     30 HH12 ARG A   1      28.312   3.020 -32.572  0.00  0.00    +0.255 HD
ATOM     31  HE  ARG A   1      25.759   5.259 -33.691  0.00  0.00    +0.259 HD
ENDBRANCH  22  23
ENDBRANCH  21  22
ENDBRANCH  20  21
ENDBRANCH  17  20
ENDBRANCH  13  17
ENDBRANCH  12  14
BRANCH  12  32
ATOM     32  CB  VAL A   2      27.635  -2.100 -28.655  0.00  0.00    +0.027 C 
ATOM     33  CG2 VAL A   2      29.031  -1.514 -28.425  0.00  0.00    +0.002 C 
ATOM     34  CG1 VAL A   2      27.682  -3.194 -29.755  0.00  0.00    +0.002 C 
ENDBRANCH  12  32
ENDBRANCH   8  12
ENDBRANCH   6   9
ENDBRANCH   2   6
ENDBRANCH   1   3
BRANCH   1  35
ATOM     35  C   VAL A   4      28.246  -0.512 -21.393  0.00  0.00    +0.241 C 
ATOM     36  N   LYS A   5      28.091  -1.466 -20.477  0.00  0.00    -0.297 N 
ATOM     37  H   LYS A   5      28.131  -2.468 -20.754  0.00  0.00    +0.150 HD
ATOM     38  O   VAL A   4      28.204   0.718 -21.120  0.00  0.00    -0.273 OA
BRANCH  36  39
ATOM     39  CA  LYS A   5      27.868  -1.105 -19.099  0.00  0.00    +0.149 C 
BRANCH  39  40
ATOM     40  C   LYS A   5      28.982  -1.622 -18.231  0.00  0.00    +0.241 C 
ATOM     41  N   LYS A   6      29.526  -0.730 -17.422  0.00  0.00    -0.297 N 
ATOM     42  H   LYS A   6      29.218   0.261 -17.494  0.00  0.00    +0.150 HD
ATOM     43  O   LYS A   5      29.379  -2.766 -18.329  0.00  0.00    -0.273 OA
BRANCH  41  44
ATOM     44  CA  LYS A   6      30.528  -1.071 -16.445  0.00  0.00    +0.149 C 
BRANCH  44  45
ATOM     45  C   LYS A   6      29.805  -1.266 -15.134  0.00  0.00    +0.241 C 
ATOM     46  N   LEU A   7      29.833  -2.473 -14.589  0.00  0.00    -0.298 N 
ATOM     47  H   LEU A   7      30.298  -3.273 -15.063  0.00  0.00    +0.150 HD
ATOM     48  O   LYS A   6      29.184  -0.323 -14.618  0.00  0.00    -0.273 OA
BRANCH  46  49
ATOM     49  CA  LEU A   7      29.197  -2.624 -13.325  0.00  0.00    +0.137 C 
BRANCH  49  50
ATOM     50  C   LEU A   7      29.950  -1.802 -12.286  0.00  0.00    +0.227 C 
ATOM     51  O   LEU A   7      31.192  -1.689 -12.301  0.00  0.00    -0.286 OA
ENDBRANCH  49  50
BRANCH  49  52
ATOM     52  CB  LEU A   7      29.091  -4.071 -12.913  0.00  0.00    +0.028 C 
BRANCH  52  53
ATOM     53  CG  LEU A   7      28.224  -4.957 -13.788  0.00  0.00    +0.002 C 
ATOM     54  CD2 LEU A   7      27.696  -6.023 -12.888  0.00  0.00    +0.000 C 
ATOM     55  CD1 LEU A   7      27.091  -4.223 -14.486  0.00  0.00    +0.000 C 
ENDBRANCH  52  53
ENDBRANCH  49  52
ENDBRANCH  46  49
ENDBRANCH  44  45
BRANCH  44  56
ATOM     56  CB  LYS A   6      31.475   0.069 -16.279  0.00  0.00    +0.029 C 
BRANCH  56  57
ATOM     57  CG  LYS A   6      32.635  -0.318 -15.414  0.00  0.00    +0.000 C 
BRANCH  57  58
ATOM     58  CD  LYS A   6      33.380   0.889 -14.915  0.00  0.00    -0.024 C 
BRANCH  58  59
ATOM     59  CE  LYS A   6      34.595   0.429 -14.159  0.00  0.00    -0.086 C 
BRANCH  59  60
ATOM     60  NZ  LYS A   6      35.433   1.570 -13.842  0.00  0.00    +0.380 N 
ATOM     61  HZ1 LYS A   6      34.896   2.241 -13.257  0.00  0.00    -0.089 HD
ATOM     62  HZ2 LYS A   6      36.272   1.248 -13.319  0.00  0.00    -0.089 HD
ATOM     63  HZ3 LYS A   6      35.730   2.036 -14.723  0.00  0.00    -0.089 HD
ENDBRANCH  59  60
ENDBRANCH  58  59
ENDBRANCH  57  58
ENDBRANCH  56  57
ENDBRANCH  44  56
ENDBRANCH  41  44
ENDBRANCH  39  40
BRANCH  39  64
ATOM     64  CB  LYS A   5      26.488  -1.576 -18.614  0.00  0.00    +0.029 C 
BRANCH  64  65
ATOM     65  CG  LYS A   5      26.058  -0.931 -17.300  0.00  0.00    +0.000 C 
BRANCH  65  66
ATOM     66  CD  LYS A   5      24.890  -1.657 -16.761  0.00  0.00    -0.024 C 
BRANCH  66  67
ATOM     67  CE  LYS A   5      24.298  -1.034 -15.501  0.00  0.00    -0.086 C 
BRANCH  67  68
ATOM     68  NZ  LYS A   5      22.947  -1.705 -15.224  0.00  0.00    +0.380 N 
ATOM     69  HZ1 LYS A   5      22.526  -1.293 -14.367  0.00  0.00    -0.089 HD
ATOM     70  HZ2 LYS A   5      23.090  -2.726 -15.085  0.00  0.00    -0.089 HD
ATOM     71  HZ3 LYS A   5      22.312  -1.550 -16.033  0.00  0.00    -0.089 HD
ENDBRANCH  67  68
ENDBRANCH  66  67
ENDBRANCH  65  66
ENDBRANCH  64  65
ENDBRANCH  39  64
ENDBRANCH  36  39
ENDBRANCH   1  35
BRANCH   1  72
ATOM     72  CB  VAL A   4      29.910  -0.763 -23.178  0.00  0.00    +0.027 C 
ATOM     73  CG2 VAL A   4      30.826  -1.492 -22.211  0.00  0.00    +0.002 C 
ATOM     74  CG1 VAL A   4      30.206  -1.231 -24.592  0.00  0.00    +0.002 C 
ENDBRANCH   1  72
TORSDOF 32
REMARK  Name = ../refined-set-2016/3iw5/3iw5_pocket.pdb
REMARK  202 active torsions:
REMARK  status: ('A' for Active; 'I' for Inactive)
REMARK    1  A    between atoms: _1  and  _3
REMARK    2  A    between atoms: _3  and  _4
REMARK    3  A    between atoms: _3  and  _6
REMARK    4  A    between atoms: _6  and  _7
REMARK    5  A    between atoms: _17  and  _19
REMARK    6  A    between atoms: _19  and  _20
REMARK    7  A    between atoms: _19  and  _22
REMARK    8  A    between atoms: _22  and  _23
REMARK    9  A    between atoms: _26  and  _27
REMARK   10  A    between atoms: _32  and  _34
REMARK   11  A    between atoms: _34  and  _35
REMARK   12  A    between atoms: _34  and  _37
REMARK   13  A    between atoms: _40  and  _42
REMARK   14  A    between atoms: _42  and  _43
REMARK   15  A    between atoms: _45  and  _47
REMARK   16  A    between atoms: _47  and  _48
REMARK   17  A    between atoms: _47  and  _50
REMARK   18  A    between atoms: _50  and  _51
REMARK   19  A    between atoms: _53  and  _57
REMARK   20  A    between atoms: _57  and  _58
REMARK   21  A    between atoms: _57  and  _60
REMARK   22  A    between atoms: _60  and  _61
REMARK   23  A    between atoms: _66  and  _67
REMARK   24  A    between atoms: _69  and  _71
REMARK   25  A    between atoms: _71  and  _72
REMARK   26  A    between atoms: _74  and  _76
REMARK   27  A    between atoms: _76  and  _77
REMARK   28  A    between atoms: _76  and  _79
REMARK   29  A    between atoms: _79  and  _80
REMARK   30  A    between atoms: _82  and  _84
REMARK   31  A    between atoms: _84  and  _85
REMARK   32  A    between atoms: _84  and  _87
REMARK   33  A    between atoms: _90  and  _92
REMARK   34  A    between atoms: _92  and  _93
REMARK   35  A    between atoms: _92  and  _95
REMARK   36  A    between atoms: _97  and  _99
REMARK   37  A    between atoms: _99  and  _100
REMARK   38  A    between atoms: _103  and  _105
REMARK   39  A    between atoms: _105  and  _106
REMARK   40  A    between atoms: _109  and  _111
REMARK   41  A    between atoms: _111  and  _112
REMARK   42  A    between atoms: _111  and  _114
REMARK   43  A    between atoms: _114  and  _115
REMARK   44  A    between atoms: _115  and  _116
REMARK   45  A    between atoms: _116  and  _117
REMARK   46  A    between atoms: _126  and  _128
REMARK   47  A    between atoms: _128  and  _129
REMARK   48  A    between atoms: _128  and  _131
REMARK   49  A    between atoms: _134  and  _136
REMARK   50  A    between atoms: _136  and  _137
REMARK   51  A    between atoms: _140  and  _142
REMARK   52  A    between atoms: _142  and  _143
REMARK   53  A    between atoms: _142  and  _145
REMARK   54  A    between atoms: _148  and  _150
REMARK   55  A    between atoms: _150  and  _151
REMARK   56  A    between atoms: _150  and  _153
REMARK   57  A    between atoms: _153  and  _154
REMARK   58  A    between atoms: _154  and  _155
REMARK   59  A    between atoms: _155  and  _156
REMARK   60  A    between atoms: _156  and  _157
REMARK   61  A    between atoms: _161  and  _163
REMARK   62  A    between atoms: _163  and  _164
REMARK   63  A    between atoms: _163  and  _166
REMARK   64  A    between atoms: _166  and  _167
REMARK   65  A    between atoms: _167  and  _168
REMARK   66  A    between atoms: _168  and  _169
REMARK   67  A    between atoms: _169  and  _170
REMARK   68  A    between atoms: _174  and  _176
REMARK   69  A    between atoms: _176  and  _177
REMARK   70  A    between atoms: _176  and  _179
REMARK   71  A    between atoms: _179  and  _180
REMARK   72  A    between atoms: _183  and  _185
REMARK   73  A    between atoms: _185  and  _186
REMARK   74  A    between atoms: _185  and  _188
REMARK   75  A    between atoms: _188  and  _189
REMARK   76  A    between atoms: _189  and  _190
REMARK   77  A    between atoms: _193  and  _195
REMARK   78  A    between atoms: _195  and  _196
REMARK   79  A    between atoms: _195  and  _198
REMARK   80  A    between atoms: _198  and  _199
REMARK   81  A    between atoms: _202  and  _204
REMARK   82  A    between atoms: _204  and  _205
REMARK   83  A    between atoms: _204  and  _207
REMARK   84  A    between atoms: _207  and  _208
REMARK   85  A    between atoms: _211  and  _213
REMARK   86  A    between atoms: _213  and  _214
REMARK   87  A    between atoms: _213  and  _216
REMARK   88  A    between atoms: _216  and  _217
REMARK   89  A    between atoms: _220  and  _222
REMARK   90  A    between atoms: _222  and  _223
REMARK   91  A    between atoms: _225  and  _227
REMARK   92  A    between atoms: _227  and  _228
REMARK   93  A    between atoms: _227  and  _230
REMARK   94  A    between atoms: _230  and  _231
REMARK   95  A    between atoms: _234  and  _236
REMARK   96  A    between atoms: _236  and  _237
REMARK   97  A    between atoms: _236  and  _239
REMARK   98  A    between atoms: _239  and  _240
REMARK   99  A    between atoms: _243  and  _245
REMARK  100  A    between atoms: _245  and  _246
REMARK  101  A    between atoms: _245  and  _248
REMARK  102  A    between atoms: _248  and  _249
REMARK  103  A    between atoms: _252  and  _254
REMARK  104  A    between atoms: _254  and  _255
REMARK  105  A    between atoms: _254  and  _257
REMARK  106  A    between atoms: _257  and  _258
REMARK  107  A    between atoms: _263  and  _264
REMARK  108  A    between atoms: _266  and  _268
REMARK  109  A    between atoms: _268  and  _269
REMARK  110  A    between atoms: _268  and  _271
REMARK  111  A    between atoms: _271  and  _272
REMARK  112  A    between atoms: _275  and  _277
REMARK  113  A    between atoms: _277  and  _278
REMARK  114  A    between atoms: _277  and  _280
REMARK  115  A    between atoms: _283  and  _285
REMARK  116  A    between atoms: _285  and  _286
REMARK  117  A    between atoms: _285  and  _288
REMARK  118  A    between atoms: _288  and  _289
REMARK  119  A    between atoms: _292  and  _294
REMARK  120  A    between atoms: _294  and  _295
REMARK  121  A    between atoms: _294  and  _297
REMARK  122  A    between atoms: _297  and  _298
REMARK  123  A    between atoms: _303  and  _305
REMARK  124  A    between atoms: _305  and  _306
REMARK  125  A    between atoms: _305  and  _308
REMARK  126  A    between atoms: _308  and  _309
REMARK  127  A    between atoms: _312  and  _314
REMARK  128  A    between atoms: _314  and  _315
REMARK  129  A    between atoms: _314  and  _317
REMARK  130  A    between atoms: _317  and  _318
REMARK  131  A    between atoms: _318  and  _319
REMARK  132  A    between atoms: _321  and  _323
REMARK  133  A    between atoms: _323  and  _324
REMARK  134  A    between atoms: _326  and  _328
REMARK  135  A    between atoms: _328  and  _329
REMARK  136  A    between atoms: _332  and  _334
REMARK  137  A    between atoms: _334  and  _335
REMARK  138  A    between atoms: _334  and  _337
REMARK  139  A    between atoms: _337  and  _338
REMARK  140  A    between atoms: _341  and  _343
REMARK  141  A    between atoms: _343  and  _344
REMARK  142  A    between atoms: _343  and  _346
REMARK  143  A    between atoms: _346  and  _347
REMARK  144  A    between atoms: _350  and  _352
REMARK  145  A    between atoms: _352  and  _353
REMARK  146  A    between atoms: _352  and  _355
REMARK  147  A    between atoms: _355  and  _356
REMARK  148  A    between atoms: _361  and  _363
REMARK  149  A    between atoms: _363  and  _364
REMARK  150  A    between atoms: _363  and  _366
REMARK  151  A    between atoms: _366  and  _367
REMARK  152  A    between atoms: _373  and  _374
REMARK  153  A    between atoms: _379  and  _381
REMARK  154  A    between atoms: _381  and  _382
REMARK  155  A    between atoms: _381  and  _384
REMARK  156  A    between atoms: _384  and  _385
REMARK  157  A    between atoms: _387  and  _389
REMARK  158  A    between atoms: _389  and  _390
REMARK  159  A    between atoms: _389  and  _392
REMARK  160  A    between atoms: _392  and  _393
REMARK  161  A    between atoms: _398  and  _400
REMARK  162  A    between atoms: _400  and  _401
REMARK  163  A    between atoms: _400  and  _403
REMARK  164  A    between atoms: _403  and  _404
REMARK  165  A    between atoms: _407  and  _409
REMARK  166  A    between atoms: _409  and  _410
REMARK  167  A    between atoms: _413  and  _415
REMARK  168  A    between atoms: _415  and  _416
REMARK  169  A    between atoms: _415  and  _418
REMARK  170  A    between atoms: _421  and  _423
REMARK  171  A    between atoms: _423  and  _424
REMARK  172  A    between atoms: _423  and  _426
REMARK  173  A    between atoms: _426  and  _427
REMARK  174  A    between atoms: _432  and  _434
REMARK  175  A    between atoms: _434  and  _435
REMARK  176  A    between atoms: _434  and  _437
REMARK  177  A    between atoms: _437  and  _438
REMARK  178  A    between atoms: _438  and  _439
REMARK  179  A    between atoms: _439  and  _440
REMARK  180  A    between atoms: _440  and  _441
REMARK  181  A    between atoms: _445  and  _447
REMARK  182  A    between atoms: _447  and  _448
REMARK  183  A    between atoms: _447  and  _450
REMARK  184  A    between atoms: _450  and  _451
REMARK  185  A    between atoms: _454  and  _456
REMARK  186  A    between atoms: _456  and  _457
REMARK  187  A    between atoms: _456  and  _459
REMARK  188  A    between atoms: _459  and  _460
REMARK  189  A    between atoms: _463  and  _465
REMARK  190  A    between atoms: _465  and  _466
REMARK  191  A    between atoms: _465  and  _468
REMARK  192  A    between atoms: _468  and  _469
REMARK  193  A    between atoms: _472  and  _474
REMARK  194  A    between atoms: _474  and  _475
REMARK  195  A    between atoms: _474  and  _477
REMARK  196  A    between atoms: _477  and  _478
REMARK  197  A    between atoms: _484  and  _486
REMARK  198  A    between atoms: _486  and  _487
REMARK  199  A    between atoms: _489  and  _491
REMARK  200  A    between atoms: _491  and  _492
REMARK  201  A    between atoms: _491  and  _494
REMARK  202  A    between atoms: _494  and  _495
REMARK                            x       y       z     vdW  Elec       q    Type
REMARK                         _______ _______ _______ _____ _____    ______ ____
ROOT
ATOM      1  C   GLU A   1      22.839 -10.553 -14.450  0.00  0.00    +0.238 C 
ATOM      2  N   LEU A   2      24.056 -11.034 -14.242  0.00  0.00    -0.298 N 
ATOM      3  H   LEU A   2      24.532 -10.859 -13.334  0.00  0.00    +0.150 HD
ATOM      4  O   GLU A   1      22.226 -10.778 -15.482  0.00  0.00    -0.274 OA
ENDROOT
BRANCH   1   5
ATOM      5  CA  GLU A   1      22.181  -9.724 -13.330  0.00  0.00    +0.145 C 
BRANCH   5   6
ATOM      6  N   GLU A   1      22.376 -10.423 -12.087  0.00  0.00    -0.238 NA
ATOM      7  H   GLU A   1      22.956 -10.034 -11.316  0.00  0.00    +0.142 HD
ENDBRANCH   5   6
BRANCH   5   8
ATOM      8  CB  GLU A   1      22.632  -8.247 -13.306  0.00  0.00    +0.038 C 
BRANCH   8   9
ATOM      9  CG  GLU A   1      22.425  -7.588 -14.692  0.00  0.00    +0.116 C 
BRANCH   9  10
ATOM     10  CD  GLU A   1      22.324  -6.066 -14.679  0.00  0.00    +0.365 C 
ATOM     11  OE2 GLU A   1      23.306  -5.356 -14.329  0.00  0.00    -0.246 OA
ATOM     12  OE1 GLU A   1      21.233  -5.574 -15.056  0.00  0.00    -0.246 OA
ENDBRANCH   9  10
ENDBRANCH   8   9
ENDBRANCH   5   8
ENDBRANCH   1   5
BRANCH   2  13
ATOM     13  CA  LEU A   2      24.730 -11.803 -15.270  0.00  0.00    +0.137 C 
BRANCH  13  14
ATOM     14  C   LEU A   2      23.940 -13.024 -15.688  0.00  0.00    +0.227 C 
ATOM     15  O   LEU A   2      23.768 -13.250 -16.910  0.00  0.00    -0.286 OA
ENDBRANCH  13  14
BRANCH  13  16
ATOM     16  CB  LEU A   2      26.109 -12.266 -14.843  0.00  0.00    +0.028 C 
BRANCH  16  17
ATOM     17  CG  LEU A   2      27.234 -11.981 -15.829  0.00  0.00    +0.002 C 
ATOM     18  CD2 LEU A   2      28.476 -12.813 -15.577  0.00  0.00    +0.000 C 
ATOM     19  CD1 LEU A   2      26.843 -12.016 -17.291  0.00  0.00    +0.000 C 
ENDBRANCH  16  17
ENDBRANCH  13  16
ENDBRANCH   2  13
TORSDOF 9
REMARK  Name = ../refined-set-2016/3iw5/3iw5_pocket.pdb
REMARK  202 active torsions:
REMARK  status: ('A' for Active; 'I' for Inactive)
REMARK    1  A    between atoms: _1  and  _3
REMARK    2  A    between atoms: _3  and  _4
REMARK    3  A    between atoms: _3  and  _6
REMARK    4  A    between atoms: _6  and  _7
REMARK    5  A    between atoms: _17  and  _19
REMARK    6  A    between atoms: _19  and  _20
REMARK    7  A    between atoms: _19  and  _22
REMARK    8  A    between atoms: _22  and  _23
REMARK    9  A    between atoms: _26  and  _27
REMARK   10  A    between atoms: _32  and  _34
REMARK   11  A    between atoms: _34  and  _35
REMARK   12  A    between atoms: _34  and  _37
REMARK   13  A    between atoms: _40  and  _42
REMARK   14  A    between atoms: _42  and  _43
REMARK   15  A    between atoms: _45  and  _47
REMARK   16  A    between atoms: _47  and  _48
REMARK   17  A    between atoms: _47  and  _50
REMARK   18  A    between atoms: _50  and  _51
REMARK   19  A    between atoms: _53  and  _57
REMARK   20  A    between atoms: _57  and  _58
REMARK   21  A    between atoms: _57  and  _60
REMARK   22  A    between atoms: _60  and  _61
REMARK   23  A    between atoms: _66  and  _67
REMARK   24  A    between atoms: _69  and  _71
REMARK   25  A    between atoms: _71  and  _72
REMARK   26  A    between atoms: _74  and  _76
REMARK   27  A    between atoms: _76  and  _77
REMARK   28  A    between atoms: _76  and  _79
REMARK   29  A    between atoms: _79  and  _80
REMARK   30  A    between atoms: _82  and  _84
REMARK   31  A    between atoms: _84  and  _85
REMARK   32  A    between atoms: _84  and  _87
REMARK   33  A    between atoms: _90  and  _92
REMARK   34  A    between atoms: _92  and  _93
REMARK   35  A    between atoms: _92  and  _95
REMARK   36  A    between atoms: _97  and  _99
REMARK   37  A    between atoms: _99  and  _100
REMARK   38  A    between atoms: _103  and  _105
REMARK   39  A    between atoms: _105  and  _106
REMARK   40  A    between atoms: _109  and  _111
REMARK   41  A    between atoms: _111  and  _112
REMARK   42  A    between atoms: _111  and  _114
REMARK   43  A    between atoms: _114  and  _115
REMARK   44  A    between atoms: _115  and  _116
REMARK   45  A    between atoms: _116  and  _117
REMARK   46  A    between atoms: _126  and  _128
REMARK   47  A    between atoms: _128  and  _129
REMARK   48  A    between atoms: _128  and  _131
REMARK   49  A    between atoms: _134  and  _136
REMARK   50  A    between atoms: _136  and  _137
REMARK   51  A    between atoms: _140  and  _142
REMARK   52  A    between atoms: _142  and  _143
REMARK   53  A    between atoms: _142  and  _145
REMARK   54  A    between atoms: _148  and  _150
REMARK   55  A    between atoms: _150  and  _151
REMARK   56  A    between atoms: _150  and  _153
REMARK   57  A    between atoms: _153  and  _154
REMARK   58  A    between atoms: _154  and  _155
REMARK   59  A    between atoms: _155  and  _156
REMARK   60  A    between atoms: _156  and  _157
REMARK   61  A    between atoms: _161  and  _163
REMARK   62  A    between atoms: _163  and  _164
REMARK   63  A    between atoms: _163  and  _166
REMARK   64  A    between atoms: _166  and  _167
REMARK   65  A    between atoms: _167  and  _168
REMARK   66  A    between atoms: _168  and  _169
REMARK   67  A    between atoms: _169  and  _170
REMARK   68  A    between atoms: _174  and  _176
REMARK   69  A    between atoms: _176  and  _177
REMARK   70  A    between atoms: _176  and  _179
REMARK   71  A    between atoms: _179  and  _180
REMARK   72  A    between atoms: _183  and  _185
REMARK   73  A    between atoms: _185  and  _186
REMARK   74  A    between atoms: _185  and  _188
REMARK   75  A    between atoms: _188  and  _189
REMARK   76  A    between atoms: _189  and  _190
REMARK   77  A    between atoms: _193  and  _195
REMARK   78  A    between atoms: _195  and  _196
REMARK   79  A    between atoms: _195  and  _198
REMARK   80  A    between atoms: _198  and  _199
REMARK   81  A    between atoms: _202  and  _204
REMARK   82  A    between atoms: _204  and  _205
REMARK   83  A    between atoms: _204  and  _207
REMARK   84  A    between atoms: _207  and  _208
REMARK   85  A    between atoms: _211  and  _213
REMARK   86  A    between atoms: _213  and  _214
REMARK   87  A    between atoms: _213  and  _216
REMARK   88  A    between atoms: _216  and  _217
REMARK   89  A    between atoms: _220  and  _222
REMARK   90  A    between atoms: _222  and  _223
REMARK   91  A    between atoms: _225  and  _227
REMARK   92  A    between atoms: _227  and  _228
REMARK   93  A    between atoms: _227  and  _230
REMARK   94  A    between atoms: _230  and  _231
REMARK   95  A    between atoms: _234  and  _236
REMARK   96  A    between atoms: _236  and  _237
REMARK   97  A    between atoms: _236  and  _239
REMARK   98  A    between atoms: _239  and  _240
REMARK   99  A    between atoms: _243  and  _245
REMARK  100  A    between atoms: _245  and  _246
REMARK  101  A    between atoms: _245  and  _248
REMARK  102  A    between atoms: _248  and  _249
REMARK  103  A    between atoms: _252  and  _254
REMARK  104  A    between atoms: _254  and  _255
REMARK  105  A    between atoms: _254  and  _257
REMARK  106  A    between atoms: _257  and  _258
REMARK  107  A    between atoms: _263  and  _264
REMARK  108  A    between atoms: _266  and  _268
REMARK  109  A    between atoms: _268  and  _269
REMARK  110  A    between atoms: _268  and  _271
REMARK  111  A    between atoms: _271  and  _272
REMARK  112  A    between atoms: _275  and  _277
REMARK  113  A    between atoms: _277  and  _278
REMARK  114  A    between atoms: _277  and  _280
REMARK  115  A    between atoms: _283  and  _285
REMARK  116  A    between atoms: _285  and  _286
REMARK  117  A    between atoms: _285  and  _288
REMARK  118  A    between atoms: _288  and  _289
REMARK  119  A    between atoms: _292  and  _294
REMARK  120  A    between atoms: _294  and  _295
REMARK  121  A    between atoms: _294  and  _297
REMARK  122  A    between atoms: _297  and  _298
REMARK  123  A    between atoms: _303  and  _305
REMARK  124  A    between atoms: _305  and  _306
REMARK  125  A    between atoms: _305  and  _308
REMARK  126  A    between atoms: _308  and  _309
REMARK  127  A    between atoms: _312  and  _314
REMARK  128  A    between atoms: _314  and  _315
REMARK  129  A    between atoms: _314  and  _317
REMARK  130  A    between atoms: _317  and  _318
REMARK  131  A    between atoms: _318  and  _319
REMARK  132  A    between atoms: _321  and  _323
REMARK  133  A    between atoms: _323  and  _324
REMARK  134  A    between atoms: _326  and  _328
REMARK  135  A    between atoms: _328  and  _329
REMARK  136  A    between atoms: _332  and  _334
REMARK  137  A    between atoms: _334  and  _335
REMARK  138  A    between atoms: _334  and  _337
REMARK  139  A    between atoms: _337  and  _338
REMARK  140  A    between atoms: _341  and  _343
REMARK  141  A    between atoms: _343  and  _344
REMARK  142  A    between atoms: _343  and  _346
REMARK  143  A    between atoms: _346  and  _347
REMARK  144  A    between atoms: _350  and  _352
REMARK  145  A    between atoms: _352  and  _353
REMARK  146  A    between atoms: _352  and  _355
REMARK  147  A    between atoms: _355  and  _356
REMARK  148  A    between atoms: _361  and  _363
REMARK  149  A    between atoms: _363  and  _364
REMARK  150  A    between atoms: _363  and  _366
REMARK  151  A    between atoms: _366  and  _367
REMARK  152  A    between atoms: _373  and  _374
REMARK  153  A    between atoms: _379  and  _381
REMARK  154  A    between atoms: _381  and  _382
REMARK  155  A    between atoms: _381  and  _384
REMARK  156  A    between atoms: _384  and  _385
REMARK  157  A    between atoms: _387  and  _389
REMARK  158  A    between atoms: _389  and  _390
REMARK  159  A    between atoms: _389  and  _392
REMARK  160  A    between atoms: _392  and  _393
REMARK  161  A    between atoms: _398  and  _400
REMARK  162  A    between atoms: _400  and  _401
REMARK  163  A    between atoms: _400  and  _403
REMARK  164  A    between atoms: _403  and  _404
REMARK  165  A    between atoms: _407  and  _409
REMARK  166  A    between atoms: _409  and  _410
REMARK  167  A    between atoms: _413  and  _415
REMARK  168  A    between atoms: _415  and  _416
REMARK  169  A    between atoms: _415  and  _418
REMARK  170  A    between atoms: _421  and  _423
REMARK  171  A    between atoms: _423  and  _424
REMARK  172  A    between atoms: _423  and  _426
REMARK  173  A    between atoms: _426  and  _427
REMARK  174  A    between atoms: _432  and  _434
REMARK  175  A    between atoms: _434  and  _435
REMARK  176  A    between atoms: _434  and  _437
REMARK  177  A    between atoms: _437  and  _438
REMARK  178  A    between atoms: _438  and  _439
REMARK  179  A    between atoms: _439  and  _440
REMARK  180  A    between atoms: _440  and  _441
REMARK  181  A    between atoms: _445  and  _447
REMARK  182  A    between atoms: _447  and  _448
REMARK  183  A    between atoms: _447  and  _450
REMARK  184  A    between atoms: _450  and  _451
REMARK  185  A    between atoms: _454  and  _456
REMARK  186  A    between atoms: _456  and  _457
REMARK  187  A    between atoms: _456  and  _459
REMARK  188  A    between atoms: _459  and  _460
REMARK  189  A    between atoms: _463  and  _465
REMARK  190  A    between atoms: _465  and  _466
REMARK  191  A    between atoms: _465  and  _468
REMARK  192  A    between atoms: _468  and  _469
REMARK  193  A    between atoms: _472  and  _474
REMARK  194  A    between atoms: _474  and  _475
REMARK  195  A    between atoms: _474  and  _477
REMARK  196  A    between atoms: _477  and  _478
REMARK  197  A    between atoms: _484  and  _486
REMARK  198  A    between atoms: _486  and  _487
REMARK  199  A    between atoms: _489  and  _491
REMARK  200  A    between atoms: _491  and  _492
REMARK  201  A    between atoms: _491  and  _494
REMARK  202  A    between atoms: _494  and  _495
REMARK                            x       y       z     vdW  Elec       q    Type
REMARK                         _______ _______ _______ _____ _____    ______ ____
ROOT
ATOM      1  CA  LEU A   1      20.900 -11.719 -19.061  0.00  0.00    +0.133 C 
ENDROOT
BRANCH   1   2
ATOM      2  N   LEU A   1      20.742 -12.224 -17.693  0.00  0.00    -0.239 NA
ATOM      3  H   LEU A   1      21.386 -11.909 -16.940  0.00  0.00    +0.142 HD
ENDBRANCH   1   2
BRANCH   1   4
ATOM      4  C   LEU A   1      21.409 -12.797 -20.015  0.00  0.00    +0.224 C 
ATOM      5  O   LEU A   1      21.088 -12.808 -21.218  0.00  0.00    -0.287 OA
ENDBRANCH   1   4
BRANCH   1   6
ATOM      6  CB  LEU A   1      21.807 -10.502 -19.090  0.00  0.00    +0.025 C 
BRANCH   6   7
ATOM      7  CG  LEU A   1      21.191  -9.303 -18.397  0.00  0.00    +0.002 C 
ATOM      8  CD2 LEU A   1      22.222  -8.207 -18.385  0.00  0.00    +0.000 C 
ATOM      9  CD1 LEU A   1      19.969  -8.840 -19.094  0.00  0.00    +0.000 C 
ENDBRANCH   6   7
ENDBRANCH   1   6
TORSDOF 4
REMARK  Name = ../refined-set-2016/3iw5/3iw5_pocket.pdb
REMARK  202 active torsions:
REMARK  status: ('A' for Active; 'I' for Inactive)
REMARK    1  A    between atoms: _1  and  _3
REMARK    2  A    between atoms: _3  and  _4
REMARK    3  A    between atoms: _3  and  _6
REMARK    4  A    between atoms: _6  and  _7
REMARK    5  A    between atoms: _17  and  _19
REMARK    6  A    between atoms: _19  and  _20
REMARK    7  A    between atoms: _19  and  _22
REMARK    8  A    between atoms: _22  and  _23
REMARK    9  A    between atoms: _26  and  _27
REMARK   10  A    between atoms: _32  and  _34
REMARK   11  A    between atoms: _34  and  _35
REMARK   12  A    between atoms: _34  and  _37
REMARK   13  A    between atoms: _40  and  _42
REMARK   14  A    between atoms: _42  and  _43
REMARK   15  A    between atoms: _45  and  _47
REMARK   16  A    between atoms: _47  and  _48
REMARK   17  A    between atoms: _47  and  _50
REMARK   18  A    between atoms: _50  and  _51
REMARK   19  A    between atoms: _53  and  _57
REMARK   20  A    between atoms: _57  and  _58
REMARK   21  A    between atoms: _57  and  _60
REMARK   22  A    between atoms: _60  and  _61
REMARK   23  A    between atoms: _66  and  _67
REMARK   24  A    between atoms: _69  and  _71
REMARK   25  A    between atoms: _71  and  _72
REMARK   26  A    between atoms: _74  and  _76
REMARK   27  A    between atoms: _76  and  _77
REMARK   28  A    between atoms: _76  and  _79
REMARK   29  A    between atoms: _79  and  _80
REMARK   30  A    between atoms: _82  and  _84
REMARK   31  A    between atoms: _84  and  _85
REMARK   32  A    between atoms: _84  and  _87
REMARK   33  A    between atoms: _90  and  _92
REMARK   34  A    between atoms: _92  and  _93
REMARK   35  A    between atoms: _92  and  _95
REMARK   36  A    between atoms: _97  and  _99
REMARK   37  A    between atoms: _99  and  _100
REMARK   38  A    between atoms: _103  and  _105
REMARK   39  A    between atoms: _105  and  _106
REMARK   40  A    between atoms: _109  and  _111
REMARK   41  A    between atoms: _111  and  _112
REMARK   42  A    between atoms: _111  and  _114
REMARK   43  A    between atoms: _114  and  _115
REMARK   44  A    between atoms: _115  and  _116
REMARK   45  A    between atoms: _116  and  _117
REMARK   46  A    between atoms: _126  and  _128
REMARK   47  A    between atoms: _128  and  _129
REMARK   48  A    between atoms: _128  and  _131
REMARK   49  A    between atoms: _134  and  _136
REMARK   50  A    between atoms: _136  and  _137
REMARK   51  A    between atoms: _140  and  _142
REMARK   52  A    between atoms: _142  and  _143
REMARK   53  A    between atoms: _142  and  _145
REMARK   54  A    between atoms: _148  and  _150
REMARK   55  A    between atoms: _150  and  _151
REMARK   56  A    between atoms: _150  and  _153
REMARK   57  A    between atoms: _153  and  _154
REMARK   58  A    between atoms: _154  and  _155
REMARK   59  A    between atoms: _155  and  _156
REMARK   60  A    between atoms: _156  and  _157
REMARK   61  A    between atoms: _161  and  _163
REMARK   62  A    between atoms: _163  and  _164
REMARK   63  A    between atoms: _163  and  _166
REMARK   64  A    between atoms: _166  and  _167
REMARK   65  A    between atoms: _167  and  _168
REMARK   66  A    between atoms: _168  and  _169
REMARK   67  A    between atoms: _169  and  _170
REMARK   68  A    between atoms: _174  and  _176
REMARK   69  A    between atoms: _176  and  _177
REMARK   70  A    between atoms: _176  and  _179
REMARK   71  A    between atoms: _179  and  _180
REMARK   72  A    between atoms: _183  and  _185
REMARK   73  A    between atoms: _185  and  _186
REMARK   74  A    between atoms: _185  and  _188
REMARK   75  A    between atoms: _188  and  _189
REMARK   76  A    between atoms: _189  and  _190
REMARK   77  A    between atoms: _193  and  _195
REMARK   78  A    between atoms: _195  and  _196
REMARK   79  A    between atoms: _195  and  _198
REMARK   80  A    between atoms: _198  and  _199
REMARK   81  A    between atoms: _202  and  _204
REMARK   82  A    between atoms: _204  and  _205
REMARK   83  A    between atoms: _204  and  _207
REMARK   84  A    between atoms: _207  and  _208
REMARK   85  A    between atoms: _211  and  _213
REMARK   86  A    between atoms: _213  and  _214
REMARK   87  A    between atoms: _213  and  _216
REMARK   88  A    between atoms: _216  and  _217
REMARK   89  A    between atoms: _220  and  _222
REMARK   90  A    between atoms: _222  and  _223
REMARK   91  A    between atoms: _225  and  _227
REMARK   92  A    between atoms: _227  and  _228
REMARK   93  A    between atoms: _227  and  _230
REMARK   94  A    between atoms: _230  and  _231
REMARK   95  A    between atoms: _234  and  _236
REMARK   96  A    between atoms: _236  and  _237
REMARK   97  A    between atoms: _236  and  _239
REMARK   98  A    between atoms: _239  and  _240
REMARK   99  A    between atoms: _243  and  _245
REMARK  100  A    between atoms: _245  and  _246
REMARK  101  A    between atoms: _245  and  _248
REMARK  102  A    between atoms: _248  and  _249
REMARK  103  A    between atoms: _252  and  _254
REMARK  104  A    between atoms: _254  and  _255
REMARK  105  A    between atoms: _254  and  _257
REMARK  106  A    between atoms: _257  and  _258
REMARK  107  A    between atoms: _263  and  _264
REMARK  108  A    between atoms: _266  and  _268
REMARK  109  A    between atoms: _268  and  _269
REMARK  110  A    between atoms: _268  and  _271
REMARK  111  A    between atoms: _271  and  _272
REMARK  112  A    between atoms: _275  and  _277
REMARK  113  A    between atoms: _277  and  _278
REMARK  114  A    between atoms: _277  and  _280
REMARK  115  A    between atoms: _283  and  _285
REMARK  116  A    between atoms: _285  and  _286
REMARK  117  A    between atoms: _285  and  _288
REMARK  118  A    between atoms: _288  and  _289
REMARK  119  A    between atoms: _292  and  _294
REMARK  120  A    between atoms: _294  and  _295
REMARK  121  A    between atoms: _294  and  _297
REMARK  122  A    between atoms: _297  and  _298
REMARK  123  A    between atoms: _303  and  _305
REMARK  124  A    between atoms: _305  and  _306
REMARK  125  A    between atoms: _305  and  _308
REMARK  126  A    between atoms: _308  and  _309
REMARK  127  A    between atoms: _312  and  _314
REMARK  128  A    between atoms: _314  and  _315
REMARK  129  A    between atoms: _314  and  _317
REMARK  130  A    between atoms: _317  and  _318
REMARK  131  A    between atoms: _318  and  _319
REMARK  132  A    between atoms: _321  and  _323
REMARK  133  A    between atoms: _323  and  _324
REMARK  134  A    between atoms: _326  and  _328
REMARK  135  A    between atoms: _328  and  _329
REMARK  136  A    between atoms: _332  and  _334
REMARK  137  A    between atoms: _334  and  _335
REMARK  138  A    between atoms: _334  and  _337
REMARK  139  A    between atoms: _337  and  _338
REMARK  140  A    between atoms: _341  and  _343
REMARK  141  A    between atoms: _343  and  _344
REMARK  142  A    between atoms: _343  and  _346
REMARK  143  A    between atoms: _346  and  _347
REMARK  144  A    between atoms: _350  and  _352
REMARK  145  A    between atoms: _352  and  _353
REMARK  146  A    between atoms: _352  and  _355
REMARK  147  A    between atoms: _355  and  _356
REMARK  148  A    between atoms: _361  and  _363
REMARK  149  A    between atoms: _363  and  _364
REMARK  150  A    between atoms: _363  and  _366
REMARK  151  A    between atoms: _366  and  _367
REMARK  152  A    between atoms: _373  and  _374
REMARK  153  A    between atoms: _379  and  _381
REMARK  154  A    between atoms: _381  and  _382
REMARK  155  A    between atoms: _381  and  _384
REMARK  156  A    between atoms: _384  and  _385
REMARK  157  A    between atoms: _387  and  _389
REMARK  158  A    between atoms: _389  and  _390
REMARK  159  A    between atoms: _389  and  _392
REMARK  160  A    between atoms: _392  and  _393
REMARK  161  A    between atoms: _398  and  _400
REMARK  162  A    between atoms: _400  and  _401
REMARK  163  A    between atoms: _400  and  _403
REMARK  164  A    between atoms: _403  and  _404
REMARK  165  A    between atoms: _407  and  _409
REMARK  166  A    between atoms: _409  and  _410
REMARK  167  A    between atoms: _413  and  _415
REMARK  168  A    between atoms: _415  and  _416
REMARK  169  A    between atoms: _415  and  _418
REMARK  170  A    between atoms: _421  and  _423
REMARK  171  A    between atoms: _423  and  _424
REMARK  172  A    between atoms: _423  and  _426
REMARK  173  A    between atoms: _426  and  _427
REMARK  174  A    between atoms: _432  and  _434
REMARK  175  A    between atoms: _434  and  _435
REMARK  176  A    between atoms: _434  and  _437
REMARK  177  A    between atoms: _437  and  _438
REMARK  178  A    between atoms: _438  and  _439
REMARK  179  A    between atoms: _439  and  _440
REMARK  180  A    between atoms: _440  and  _441
REMARK  181  A    between atoms: _445  and  _447
REMARK  182  A    between atoms: _447  and  _448
REMARK  183  A    between atoms: _447  and  _450
REMARK  184  A    between atoms: _450  and  _451
REMARK  185  A    between atoms: _454  and  _456
REMARK  186  A    between atoms: _456  and  _457
REMARK  187  A    between atoms: _456  and  _459
REMARK  188  A    between atoms: _459  and  _460
REMARK  189  A    between atoms: _463  and  _465
REMARK  190  A    between atoms: _465  and  _466
REMARK  191  A    between atoms: _465  and  _468
REMARK  192  A    between atoms: _468  and  _469
REMARK  193  A    between atoms: _472  and  _474
REMARK  194  A    between atoms: _474  and  _475
REMARK  195  A    between atoms: _474  and  _477
REMARK  196  A    between atoms: _477  and  _478
REMARK  197  A    between atoms: _484  and  _486
REMARK  198  A    between atoms: _486  and  _487
REMARK  199  A    between atoms: _489  and  _491
REMARK  200  A    between atoms: _491  and  _492
REMARK  201  A    between atoms: _491  and  _494
REMARK  202  A    between atoms: _494  and  _495
REMARK                            x       y       z     vdW  Elec       q    Type
REMARK                         _______ _______ _______ _____ _____    ______ ____
ROOT
ATOM      1  CA  LEU A   3      23.974  -9.851 -24.358  0.00  0.00    +0.149 C 
ENDROOT
BRANCH   1   2
ATOM      2  C   LEU A   3      24.575 -10.214 -25.690  0.00  0.00    +0.241 C 
ATOM      3  O   LEU A   3      24.333 -11.320 -26.196  0.00  0.00    -0.273 OA
ATOM      4  N   LEU A   4      25.353  -9.267 -26.223  0.00  0.00    -0.297 N 
ATOM      5  H   LEU A   4      25.280  -8.301 -25.845  0.00  0.00    +0.150 HD
BRANCH   4   6
ATOM      6  CA  LEU A   4      26.292  -9.512 -27.299  0.00  0.00    +0.149 C 
BRANCH   6   7
ATOM      7  C   LEU A   4      27.694  -9.912 -26.775  0.00  0.00    +0.241 C 
ATOM      8  N   ASP A   5      28.061  -9.468 -25.571  0.00  0.00    -0.298 N 
ATOM      9  H   ASP A   5      27.416  -8.877 -25.009  0.00  0.00    +0.150 HD
ATOM     10  O   LEU A   4      28.452 -10.614 -27.460  0.00  0.00    -0.273 OA
BRANCH   8  11
ATOM     11  CA  ASP A   5      29.363  -9.819 -25.060  0.00  0.00    +0.148 C 
BRANCH  11  12
ATOM     12  C   ASP A   5      29.372  -9.564 -23.560  0.00  0.00    +0.227 C 
ATOM     13  O   ASP A   5      28.482  -8.865 -23.048  0.00  0.00    -0.286 OA
ENDBRANCH  11  12
BRANCH  11  14
ATOM     14  CB  ASP A   5      30.447  -8.984 -25.801  0.00  0.00    +0.142 C 
BRANCH  14  15
ATOM     15  CG  ASP A   5      31.860  -9.534 -25.636  0.00  0.00    +0.367 C 
ATOM     16  OD2 ASP A   5      32.025 -10.741 -25.317  0.00  0.00    -0.246 OA
ATOM     17  OD1 ASP A   5      32.814  -8.755 -25.817  0.00  0.00    -0.246 OA
ENDBRANCH  14  15
ENDBRANCH  11  14
ENDBRANCH   8  11
ENDBRANCH   6   7
BRANCH   6  18
ATOM     18  CB  LEU A   4      26.407  -8.251 -28.154  0.00  0.00    +0.029 C 
BRANCH  18  19
ATOM     19  CG  LEU A   4      25.133  -7.766 -28.865  0.00  0.00    +0.002 C 
ATOM     20  CD2 LEU A   4      25.283  -6.365 -29.282  0.00  0.00    +0.000 C 
ATOM     21  CD1 LEU A   4      24.815  -8.673 -30.089  0.00  0.00    +0.000 C 
ENDBRANCH  18  19
ENDBRANCH   6  18
ENDBRANCH   4   6
ENDBRANCH   1   2
BRANCH   1  24
ATOM     22  C   GLY A   2      21.626  -9.319 -24.120  0.00  0.00    +0.243 C 
ATOM     23  O   GLY A   2      21.902  -8.134 -24.115  0.00  0.00    -0.273 OA
ATOM     24  N   LEU A   3      22.572 -10.246 -24.185  0.00  0.00    -0.297 N 
ATOM     25  H   LEU A   3      22.320 -11.252 -24.113  0.00  0.00    +0.150 HD
BRANCH  22  26
ATOM     26  CA  GLY A   2      20.176  -9.772 -24.016  0.00  0.00    +0.176 C 
BRANCH  26  29
ATOM     27  C   ILE A   1      18.178  -8.524 -23.276  0.00  0.00    +0.238 C 
ATOM     28  O   ILE A   1      17.839  -9.350 -22.440  0.00  0.00    -0.274 OA
ATOM     29  N   GLY A   2      19.277  -8.632 -24.016  0.00  0.00    -0.296 N 
ATOM     30  H   GLY A   2      19.511  -7.837 -24.644  0.00  0.00    +0.150 HD
BRANCH  27  31
ATOM     31  CA  ILE A   1      17.335  -7.272 -23.522  0.00  0.00    +0.145 C 
BRANCH  31  32
ATOM     32  N   ILE A   1      15.916  -7.590 -23.442  0.00  0.00    -0.238 NA
ATOM     33  H   ILE A   1      15.313  -7.136 -22.726  0.00  0.00    +0.142 HD
ENDBRANCH  31  32
BRANCH  31  34
ATOM     34  CB  ILE A   1      17.718  -6.121 -22.546  0.00  0.00    +0.025 C 
ATOM     35  CG2 ILE A   1      17.543  -6.523 -21.009  0.00  0.00    +0.002 C 
BRANCH  34  36
ATOM     36  CG1 ILE A   1      19.096  -5.572 -22.901  0.00  0.00    +0.002 C 
ATOM     37  CD1 ILE A   1      19.383  -4.227 -22.278  0.00  0.00    +0.000 C 
ENDBRANCH  34  36
ENDBRANCH  31  34
ENDBRANCH  27  31
ENDBRANCH  26  29
ENDBRANCH  22  26
ENDBRANCH   1  24
BRANCH   1  38
ATOM     38  CB  LEU A   3      24.855 -10.463 -23.291  0.00  0.00    +0.029 C 
BRANCH  38  39
ATOM     39  CG  LEU A   3      24.353 -10.186 -21.916  0.00  0.00    +0.002 C 
ATOM     40  CD2 LEU A   3      24.888 -11.286 -21.061  0.00  0.00    +0.000 C 
ATOM     41  CD1 LEU A   3      24.876  -8.797 -21.584  0.00  0.00    +0.000 C 
ENDBRANCH  38  39
ENDBRANCH   1  38
TORSDOF 18
REMARK  Name = ../refined-set-2016/3iw5/3iw5_pocket.pdb
REMARK  202 active torsions:
REMARK  status: ('A' for Active; 'I' for Inactive)
REMARK    1  A    between atoms: _1  and  _3
REMARK    2  A    between atoms: _3  and  _4
REMARK    3  A    between atoms: _3  and  _6
REMARK    4  A    between atoms: _6  and  _7
REMARK    5  A    between atoms: _17  and  _19
REMARK    6  A    between atoms: _19  and  _20
REMARK    7  A    between atoms: _19  and  _22
REMARK    8  A    between atoms: _22  and  _23
REMARK    9  A    between atoms: _26  and  _27
REMARK   10  A    between atoms: _32  and  _34
REMARK   11  A    between atoms: _34  and  _35
REMARK   12  A    between atoms: _34  and  _37
REMARK   13  A    between atoms: _40  and  _42
REMARK   14  A    between atoms: _42  and  _43
REMARK   15  A    between atoms: _45  and  _47
REMARK   16  A    between atoms: _47  and  _48
REMARK   17  A    between atoms: _47  and  _50
REMARK   18  A    between atoms: _50  and  _51
REMARK   19  A    between atoms: _53  and  _57
REMARK   20  A    between atoms: _57  and  _58
REMARK   21  A    between atoms: _57  and  _60
REMARK   22  A    between atoms: _60  and  _61
REMARK   23  A    between atoms: _66  and  _67
REMARK   24  A    between atoms: _69  and  _71
REMARK   25  A    between atoms: _71  and  _72
REMARK   26  A    between atoms: _74  and  _76
REMARK   27  A    between atoms: _76  and  _77
REMARK   28  A    between atoms: _76  and  _79
REMARK   29  A    between atoms: _79  and  _80
REMARK   30  A    between atoms: _82  and  _84
REMARK   31  A    between atoms: _84  and  _85
REMARK   32  A    between atoms: _84  and  _87
REMARK   33  A    between atoms: _90  and  _92
REMARK   34  A    between atoms: _92  and  _93
REMARK   35  A    between atoms: _92  and  _95
REMARK   36  A    between atoms: _97  and  _99
REMARK   37  A    between atoms: _99  and  _100
REMARK   38  A    between atoms: _103  and  _105
REMARK   39  A    between atoms: _105  and  _106
REMARK   40  A    between atoms: _109  and  _111
REMARK   41  A    between atoms: _111  and  _112
REMARK   42  A    between atoms: _111  and  _114
REMARK   43  A    between atoms: _114  and  _115
REMARK   44  A    between atoms: _115  and  _116
REMARK   45  A    between atoms: _116  and  _117
REMARK   46  A    between atoms: _126  and  _128
REMARK   47  A    between atoms: _128  and  _129
REMARK   48  A    between atoms: _128  and  _131
REMARK   49  A    between atoms: _134  and  _136
REMARK   50  A    between atoms: _136  and  _137
REMARK   51  A    between atoms: _140  and  _142
REMARK   52  A    between atoms: _142  and  _143
REMARK   53  A    between atoms: _142  and  _145
REMARK   54  A    between atoms: _148  and  _150
REMARK   55  A    between atoms: _150  and  _151
REMARK   56  A    between atoms: _150  and  _153
REMARK   57  A    between atoms: _153  and  _154
REMARK   58  A    between atoms: _154  and  _155
REMARK   59  A    between atoms: _155  and  _156
REMARK   60  A    between atoms: _156  and  _157
REMARK   61  A    between atoms: _161  and  _163
REMARK   62  A    between atoms: _163  and  _164
REMARK   63  A    between atoms: _163  and  _166
REMARK   64  A    between atoms: _166  and  _167
REMARK   65  A    between atoms: _167  and  _168
REMARK   66  A    between atoms: _168  and  _169
REMARK   67  A    between atoms: _169  and  _170
REMARK   68  A    between atoms: _174  and  _176
REMARK   69  A    between atoms: _176  and  _177
REMARK   70  A    between atoms: _176  and  _179
REMARK   71  A    between atoms: _179  and  _180
REMARK   72  A    between atoms: _183  and  _185
REMARK   73  A    between atoms: _185  and  _186
REMARK   74  A    between atoms: _185  and  _188
REMARK   75  A    between atoms: _188  and  _189
REMARK   76  A    between atoms: _189  and  _190
REMARK   77  A    between atoms: _193  and  _195
REMARK   78  A    between atoms: _195  and  _196
REMARK   79  A    between atoms: _195  and  _198
REMARK   80  A    between atoms: _198  and  _199
REMARK   81  A    between atoms: _202  and  _204
REMARK   82  A    between atoms: _204  and  _205
REMARK   83  A    between atoms: _204  and  _207
REMARK   84  A    between atoms: _207  and  _208
REMARK   85  A    between atoms: _211  and  _213
REMARK   86  A    between atoms: _213  and  _214
REMARK   87  A    between atoms: _213  and  _216
REMARK   88  A    between atoms: _216  and  _217
REMARK   89  A    between atoms: _220  and  _222
REMARK   90  A    between atoms: _222  and  _223
REMARK   91  A    between atoms: _225  and  _227
REMARK   92  A    between atoms: _227  and  _228
REMARK   93  A    between atoms: _227  and  _230
REMARK   94  A    between atoms: _230  and  _231
REMARK   95  A    between atoms: _234  and  _236
REMARK   96  A    between atoms: _236  and  _237
REMARK   97  A    between atoms: _236  and  _239
REMARK   98  A    between atoms: _239  and  _240
REMARK   99  A    between atoms: _243  and  _245
REMARK  100  A    between atoms: _245  and  _246
REMARK  101  A    between atoms: _245  and  _248
REMARK  102  A    between atoms: _248  and  _249
REMARK  103  A    between atoms: _252  and  _254
REMARK  104  A    between atoms: _254  and  _255
REMARK  105  A    between atoms: _254  and  _257
REMARK  106  A    between atoms: _257  and  _258
REMARK  107  A    between atoms: _263  and  _264
REMARK  108  A    between atoms: _266  and  _268
REMARK  109  A    between atoms: _268  and  _269
REMARK  110  A    between atoms: _268  and  _271
REMARK  111  A    between atoms: _271  and  _272
REMARK  112  A    between atoms: _275  and  _277
REMARK  113  A    between atoms: _277  and  _278
REMARK  114  A    between atoms: _277  and  _280
REMARK  115  A    between atoms: _283  and  _285
REMARK  116  A    between atoms: _285  and  _286
REMARK  117  A    between atoms: _285  and  _288
REMARK  118  A    between atoms: _288  and  _289
REMARK  119  A    between atoms: _292  and  _294
REMARK  120  A    between atoms: _294  and  _295
REMARK  121  A    between atoms: _294  and  _297
REMARK  122  A    between atoms: _297  and  _298
REMARK  123  A    between atoms: _303  and  _305
REMARK  124  A    between atoms: _305  and  _306
REMARK  125  A    between atoms: _305  and  _308
REMARK  126  A    between atoms: _308  and  _309
REMARK  127  A    between atoms: _312  and  _314
REMARK  128  A    between atoms: _314  and  _315
REMARK  129  A    between atoms: _314  and  _317
REMARK  130  A    between atoms: _317  and  _318
REMARK  131  A    between atoms: _318  and  _319
REMARK  132  A    between atoms: _321  and  _323
REMARK  133  A    between atoms: _323  and  _324
REMARK  134  A    between atoms: _326  and  _328
REMARK  135  A    between atoms: _328  and  _329
REMARK  136  A    between atoms: _332  and  _334
REMARK  137  A    between atoms: _334  and  _335
REMARK  138  A    between atoms: _334  and  _337
REMARK  139  A    between atoms: _337  and  _338
REMARK  140  A    between atoms: _341  and  _343
REMARK  141  A    between atoms: _343  and  _344
REMARK  142  A    between atoms: _343  and  _346
REMARK  143  A    between atoms: _346  and  _347
REMARK  144  A    between atoms: _350  and  _352
REMARK  145  A    between atoms: _352  and  _353
REMARK  146  A    between atoms: _352  and  _355
REMARK  147  A    between atoms: _355  and  _356
REMARK  148  A    between atoms: _361  and  _363
REMARK  149  A    between atoms: _363  and  _364
REMARK  150  A    between atoms: _363  and  _366
REMARK  151  A    between atoms: _366  and  _367
REMARK  152  A    between atoms: _373  and  _374
REMARK  153  A    between atoms: _379  and  _381
REMARK  154  A    between atoms: _381  and  _382
REMARK  155  A    between atoms: _381  and  _384
REMARK  156  A    between atoms: _384  and  _385
REMARK  157  A    between atoms: _387  and  _389
REMARK  158  A    between atoms: _389  and  _390
REMARK  159  A    between atoms: _389  and  _392
REMARK  160  A    between atoms: _392  and  _393
REMARK  161  A    between atoms: _398  and  _400
REMARK  162  A    between atoms: _400  and  _401
REMARK  163  A    between atoms: _400  and  _403
REMARK  164  A    between atoms: _403  and  _404
REMARK  165  A    between atoms: _407  and  _409
REMARK  166  A    between atoms: _409  and  _410
REMARK  167  A    between atoms: _413  and  _415
REMARK  168  A    between atoms: _415  and  _416
REMARK  169  A    between atoms: _415  and  _418
REMARK  170  A    between atoms: _421  and  _423
REMARK  171  A    between atoms: _423  and  _424
REMARK  172  A    between atoms: _423  and  _426
REMARK  173  A    between atoms: _426  and  _427
REMARK  174  A    between atoms: _432  and  _434
REMARK  175  A    between atoms: _434  and  _435
REMARK  176  A    between atoms: _434  and  _437
REMARK  177  A    between atoms: _437  and  _438
REMARK  178  A    between atoms: _438  and  _439
REMARK  179  A    between atoms: _439  and  _440
REMARK  180  A    between atoms: _440  and  _441
REMARK  181  A    between atoms: _445  and  _447
REMARK  182  A    between atoms: _447  and  _448
REMARK  183  A    between atoms: _447  and  _450
REMARK  184  A    between atoms: _450  and  _451
REMARK  185  A    between atoms: _454  and  _456
REMARK  186  A    between atoms: _456  and  _457
REMARK  187  A    between atoms: _456  and  _459
REMARK  188  A    between atoms: _459  and  _460
REMARK  189  A    between atoms: _463  and  _465
REMARK  190  A    between atoms: _465  and  _466
REMARK  191  A    between atoms: _465  and  _468
REMARK  192  A    between atoms: _468  and  _469
REMARK  193  A    between atoms: _472  and  _474
REMARK  194  A    between atoms: _474  and  _475
REMARK  195  A    between atoms: _474  and  _477
REMARK  196  A    between atoms: _477  and  _478
REMARK  197  A    between atoms: _484  and  _486
REMARK  198  A    between atoms: _486  and  _487
REMARK  199  A    between atoms: _489  and  _491
REMARK  200  A    between atoms: _491  and  _492
REMARK  201  A    between atoms: _491  and  _494
REMARK  202  A    between atoms: _494  and  _495
REMARK                            x       y       z     vdW  Elec       q    Type
REMARK                         _______ _______ _______ _____ _____    ______ ____
ROOT
ATOM      1  C   LEU A   6      21.090   0.267 -29.583  0.00  0.00    +0.241 C 
ATOM      2  N   MET A   7      20.256   0.811 -28.692  0.00  0.00    -0.297 N 
ATOM      3  H   MET A   7      20.622   1.020 -27.741  0.00  0.00    +0.150 HD
ATOM      4  O   LEU A   6      20.750  -0.124 -30.727  0.00  0.00    -0.273 OA
ENDROOT
BRANCH   1   5
ATOM      5  CA  LEU A   6      22.563   0.119 -29.116  0.00  0.00    +0.149 C 
BRANCH   5   8
ATOM      6  C   HIS A   5      22.491  -2.267 -28.715  0.00  0.00    +0.241 C 
ATOM      7  O   HIS A   5      21.639  -2.087 -27.823  0.00  0.00    -0.273 OA
ATOM      8  N   LEU A   6      23.033  -1.251 -29.385  0.00  0.00    -0.297 N 
ATOM      9  H   LEU A   6      23.779  -1.423 -30.089  0.00  0.00    +0.150 HD
BRANCH   6  10
ATOM     10  CA  HIS A   5      22.964  -3.687 -29.057  0.00  0.00    +0.155 C 
BRANCH  10  13
ATOM     11  C   THR A   4      24.086  -4.152 -26.928  0.00  0.00    +0.243 C 
ATOM     12  O   THR A   4      24.748  -3.132 -26.998  0.00  0.00    -0.273 OA
ATOM     13  N   HIS A   5      23.200  -4.486 -27.849  0.00  0.00    -0.297 N 
ATOM     14  H   HIS A   5      22.645  -5.354 -27.712  0.00  0.00    +0.150 HD
BRANCH  11  15
ATOM     15  CA  THR A   4      24.199  -5.070 -25.710  0.00  0.00    +0.176 C 
BRANCH  15  18
ATOM     16  C   VAL A   3      26.234  -5.820 -24.567  0.00  0.00    +0.241 C 
ATOM     17  O   VAL A   3      25.946  -7.013 -24.653  0.00  0.00    -0.273 OA
ATOM     18  N   THR A   4      25.465  -4.840 -25.024  0.00  0.00    -0.295 N 
ATOM     19  H   THR A   4      25.781  -3.859 -24.886  0.00  0.00    +0.150 HD
BRANCH  16  20
ATOM     20  CA  VAL A   3      27.552  -5.385 -23.931  0.00  0.00    +0.149 C 
BRANCH  20  23
ATOM     21  C   LEU A   2      27.906  -5.274 -21.553  0.00  0.00    +0.241 C 
ATOM     22  O   LEU A   2      27.900  -4.047 -21.606  0.00  0.00    -0.273 OA
ATOM     23  N   VAL A   3      27.797  -6.020 -22.645  0.00  0.00    -0.297 N 
ATOM     24  H   VAL A   3      27.886  -7.054 -22.582  0.00  0.00    +0.150 HD
BRANCH  21  25
ATOM     25  CA  LEU A   2      28.121  -6.002 -20.212  0.00  0.00    +0.149 C 
BRANCH  25  27
ATOM     26  C   TYR A   1      30.311  -5.912 -19.224  0.00  0.00    +0.239 C 
ATOM     27  N   LEU A   2      29.135  -5.337 -19.428  0.00  0.00    -0.297 N 
ATOM     28  H   LEU A   2      28.941  -4.400 -19.021  0.00  0.00    +0.150 HD
ATOM     29  O   TYR A   1      30.621  -7.001 -19.723  0.00  0.00    -0.274 OA
BRANCH  26  30
ATOM     30  CA  TYR A   1      31.275  -5.143 -18.342  0.00  0.00    +0.149 C 
BRANCH  30  31
ATOM     31  N   TYR A   1      31.827  -6.053 -17.365  0.00  0.00    -0.238 NA
ATOM     32  H   TYR A   1      32.258  -6.939 -17.698  0.00  0.00    +0.142 HD
ENDBRANCH  30  31
BRANCH  30  33
ATOM     33  CB  TYR A   1      32.354  -4.604 -19.246  0.00  0.00    +0.053 C 
BRANCH  33  34
ATOM     34  CG  TYR A   1      33.400  -3.728 -18.643  0.00  0.00    -0.020 A 
ATOM     35  CD2 TYR A   1      34.428  -4.272 -17.852  0.00  0.00    -0.001 A 
ATOM     36  CE2 TYR A   1      35.426  -3.461 -17.322  0.00  0.00    +0.036 A 
ATOM     37  CZ  TYR A   1      35.402  -2.106 -17.618  0.00  0.00    +0.134 A 
ATOM     38  CE1 TYR A   1      34.404  -1.538 -18.392  0.00  0.00    +0.036 A 
ATOM     39  CD1 TYR A   1      33.420  -2.341 -18.908  0.00  0.00    -0.001 A 
BRANCH  37  40
ATOM     40  OH  TYR A   1      36.375  -1.315 -17.096  0.00  0.00    -0.506 OA
ATOM     41  HH  TYR A   1      37.005  -1.871 -16.573  0.00  0.00    +0.292 HD
ENDBRANCH  37  40
ENDBRANCH  33  34
ENDBRANCH  30  33
ENDBRANCH  26  30
ENDBRANCH  25  27
BRANCH  25  42
ATOM     42  CB  LEU A   2      26.866  -6.099 -19.371  0.00  0.00    +0.029 C 
BRANCH  42  43
ATOM     43  CG  LEU A   2      27.032  -6.751 -17.974  0.00  0.00    +0.002 C 
ATOM     44  CD2 LEU A   2      25.709  -6.753 -17.219  0.00  0.00    +0.000 C 
ATOM     45  CD1 LEU A   2      27.572  -8.148 -18.002  0.00  0.00    +0.000 C 
ENDBRANCH  42  43
ENDBRANCH  25  42
ENDBRANCH  21  25
ENDBRANCH  20  23
BRANCH  20  46
ATOM     46  CB  VAL A   3      28.701  -5.618 -24.929  0.00  0.00    +0.027 C 
ATOM     47  CG2 VAL A   3      30.020  -5.219 -24.298  0.00  0.00    +0.002 C 
ATOM     48  CG1 VAL A   3      28.468  -4.780 -26.170  0.00  0.00    +0.002 C 
ENDBRANCH  20  46
ENDBRANCH  16  20
ENDBRANCH  15  18
BRANCH  15  49
ATOM     49  CB  THR A   4      22.963  -4.828 -24.725  0.00  0.00    +0.137 C 
ATOM     50  CG2 THR A   4      22.831  -3.350 -24.361  0.00  0.00    +0.034 C 
BRANCH  49  51
ATOM     51  OG1 THR A   4      21.739  -5.271 -25.331  0.00  0.00    -0.382 OA
ATOM     52  HG1 THR A   4      21.585  -4.767 -26.169  0.00  0.00    +0.210 HD
ENDBRANCH  49  51
ENDBRANCH  15  49
ENDBRANCH  11  15
ENDBRANCH  10  13
BRANCH  10  53
ATOM     53  CB  HIS A   5      21.901  -4.409 -29.899  0.00  0.00    +0.076 C 
BRANCH  53  54
ATOM     54  CG  HIS A   5      21.794  -3.913 -31.309  0.00  0.00    +0.082 A 
ATOM     55  CD2 HIS A   5      21.165  -2.827 -31.831  0.00  0.00    +0.115 A 
ATOM     56  NE2 HIS A   5      21.348  -2.859 -33.192  0.00  0.00    -0.221 NA
ATOM     57  CE1 HIS A   5      22.060  -3.933 -33.498  0.00  0.00    +0.199 A 
ATOM     58  ND1 HIS A   5      22.346  -4.586 -32.380  0.00  0.00    -0.227 NA
ENDBRANCH  53  54
ENDBRANCH  10  53
ENDBRANCH   6  10
ENDBRANCH   5   8
BRANCH   5  59
ATOM     59  CB  LEU A   6      23.406   1.137 -29.849  0.00  0.00    +0.029 C 
BRANCH  59  60
ATOM     60  CG  LEU A   6      23.181   2.633 -29.560  0.00  0.00    +0.002 C 
ATOM     61  CD2 LEU A   6      23.647   3.008 -28.122  0.00  0.00    +0.000 C 
ATOM     62  CD1 LEU A   6      23.991   3.429 -30.540  0.00  0.00    +0.000 C 
ENDBRANCH  59  60
ENDBRANCH   5  59
ENDBRANCH   1   5
BRANCH   2  63
ATOM     63  CA  MET A   7      18.870   1.126 -28.976  0.00  0.00    +0.149 C 
BRANCH  63  64
ATOM     64  C   MET A   7      18.637   2.657 -28.971  0.00  0.00    +0.241 C 
ATOM     65  N   GLY A   8      19.290   3.364 -28.048  0.00  0.00    -0.295 N 
ATOM     66  H   GLY A   8      19.722   2.875 -27.238  0.00  0.00    +0.150 HD
ATOM     67  O   MET A   7      17.888   3.177 -29.806  0.00  0.00    -0.273 OA
BRANCH  65  68
ATOM     68  CA  GLY A   8      19.405   4.794 -28.158  0.00  0.00    +0.176 C 
BRANCH  68  69
ATOM     69  C   GLY A   8      18.378   5.539 -27.347  0.00  0.00    +0.243 C 
ATOM     70  O   GLY A   8      18.654   6.638 -26.851  0.00  0.00    -0.273 OA
ATOM     71  N   ALA A   9      17.213   4.921 -27.180  0.00  0.00    -0.297 N 
ATOM     72  H   ALA A   9      17.134   3.918 -27.445  0.00  0.00    +0.150 HD
BRANCH  71  73
ATOM     73  CA  ALA A   9      16.065   5.588 -26.649  0.00  0.00    +0.149 C 
ATOM     74  CB  ALA A   9      15.346   6.274 -27.774  0.00  0.00    +0.031 C 
BRANCH  73  75
ATOM     75  C   ALA A   9      15.113   4.630 -25.931  0.00  0.00    +0.241 C 
ATOM     76  N   ASP A  10      14.348   5.175 -24.995  0.00  0.00    -0.297 N 
ATOM     77  H   ASP A  10      14.506   6.162 -24.708  0.00  0.00    +0.150 HD
ATOM     78  O   ALA A   9      15.078   3.421 -26.204  0.00  0.00    -0.273 OA
BRANCH  76  79
ATOM     79  CA  ASP A  10      13.305   4.413 -24.376  0.00  0.00    +0.160 C 
BRANCH  79  80
ATOM     80  C   ASP A  10      11.978   4.845 -24.967  0.00  0.00    +0.241 C 
ATOM     81  N   LEU A  11      10.895   4.227 -24.510  0.00  0.00    -0.297 N 
ATOM     82  H   LEU A  11      11.001   3.525 -23.750  0.00  0.00    +0.150 HD
ATOM     83  O   ASP A  10      11.938   5.732 -25.829  0.00  0.00    -0.273 OA
BRANCH  81  84
ATOM     84  CA  LEU A  11       9.558   4.500 -25.039  0.00  0.00    +0.149 C 
BRANCH  84  85
ATOM     85  C   LEU A  11       9.052   5.982 -24.932  0.00  0.00    +0.241 C 
ATOM     86  N   ASN A  12       9.274   6.688 -23.818  0.00  0.00    -0.297 N 
ATOM     87  H   ASN A  12       9.588   6.203 -22.953  0.00  0.00    +0.150 HD
ATOM     88  O   LEU A  11       8.473   6.470 -25.889  0.00  0.00    -0.273 OA
BRANCH  86  89
ATOM     89  CA  ASN A  12       9.074   8.165 -23.808  0.00  0.00    +0.158 C 
BRANCH  89  90
ATOM     90  C   ASN A  12       9.753   8.928 -24.950  0.00  0.00    +0.241 C 
ATOM     91  N   ASN A  13      11.022   8.595 -25.203  0.00  0.00    -0.298 N 
ATOM     92  H   ASN A  13      11.458   7.819 -24.665  0.00  0.00    +0.150 HD
ATOM     93  O   ASN A  12       9.149   9.814 -25.561  0.00  0.00    -0.273 OA
BRANCH  91  94
ATOM     94  CA  ASN A  13      11.815   9.292 -26.217  0.00  0.00    +0.146 C 
BRANCH  94  95
ATOM     95  C   ASN A  13      11.158   9.168 -27.583  0.00  0.00    +0.227 C 
ATOM     96  O   ASN A  13      11.108  10.145 -28.334  0.00  0.00    -0.286 OA
ENDBRANCH  94  95
BRANCH  94  97
ATOM     97  CB  ASN A  13      13.259   8.789 -26.260  0.00  0.00    +0.112 C 
BRANCH  97  98
ATOM     98  CG  ASN A  13      13.969   8.886 -24.907  0.00  0.00    +0.222 C 
ATOM     99  ND2 ASN A  13      13.556   9.850 -24.088  0.00  0.00    -0.329 N 
ATOM    100 HD21 ASN A  13      14.003   9.968 -23.156  0.00  0.00    +0.145 HD
ATOM    101 HD22 ASN A  13      12.786  10.486 -24.379  0.00  0.00    +0.145 HD
ATOM    102  OD1 ASN A  13      14.885   8.101 -24.605  0.00  0.00    -0.275 OA
ENDBRANCH  97  98
ENDBRANCH  94  97
ENDBRANCH  91  94
ENDBRANCH  89  90
BRANCH  89 103
ATOM    103  CB  ASN A  12       9.600   8.800 -22.537  0.00  0.00    +0.114 C 
BRANCH 103 104
ATOM    104  CG  ASN A  12       9.266   8.019 -21.346  0.00  0.00    +0.222 C 
ATOM    105  ND2 ASN A  12      10.271   7.795 -20.484  0.00  0.00    -0.329 N 
ATOM    106 HD21 ASN A  12      10.101   7.244 -19.618  0.00  0.00    +0.145 HD
ATOM    107 HD22 ASN A  12      11.220   8.172 -20.682  0.00  0.00    +0.145 HD
ATOM    108  OD1 ASN A  12       8.105   7.598 -21.174  0.00  0.00    -0.275 OA
ENDBRANCH 103 104
ENDBRANCH  89 103
ENDBRANCH  86  89
ENDBRANCH  84  85
BRANCH  84 109
ATOM    109  CB  LEU A  11       8.565   3.479 -24.482  0.00  0.00    +0.029 C 
BRANCH 109 110
ATOM    110  CG  LEU A  11       7.184   3.452 -25.129  0.00  0.00    +0.002 C 
ATOM    111  CD2 LEU A  11       6.437   2.324 -24.523  0.00  0.00    +0.000 C 
ATOM    112  CD1 LEU A  11       7.274   3.251 -26.601  0.00  0.00    +0.000 C 
ENDBRANCH 109 110
ENDBRANCH  84 109
ENDBRANCH  81  84
ENDBRANCH  79  80
BRANCH  79 113
ATOM    113  CB  ASP A  10      13.352   4.521 -22.839  0.00  0.00    +0.143 C 
BRANCH 113 114
ATOM    114  CG  ASP A  10      13.007   5.891 -22.323  0.00  0.00    +0.367 C 
ATOM    115  OD2 ASP A  10      13.081   6.102 -21.094  0.00  0.00    -0.246 OA
ATOM    116  OD1 ASP A  10      12.665   6.765 -23.132  0.00  0.00    -0.246 OA
ENDBRANCH 113 114
ENDBRANCH  79 113
ENDBRANCH  76  79
ENDBRANCH  73  75
ENDBRANCH  71  73
ENDBRANCH  68  69
ENDBRANCH  65  68
ENDBRANCH  63  64
BRANCH  63 117
ATOM    117  CB  MET A   7      17.929   0.416 -28.000  0.00  0.00    +0.041 C 
BRANCH 117 118
ATOM    118  CG  MET A   7      18.052  -1.134 -28.046  0.00  0.00    +0.060 C 
BRANCH 118 119
ATOM    119  SD  MET A   7      17.323  -1.775 -29.578  0.00  0.00    -0.139 S 
ATOM    120  CE  MET A   7      18.615  -2.887 -30.028  0.00  0.00    +0.069 C 
ENDBRANCH 118 119
ENDBRANCH 117 118
ENDBRANCH  63 117
ENDBRANCH   2  63
TORSDOF 49
REMARK  Name = ../refined-set-2016/3iw5/3iw5_pocket.pdb
REMARK  202 active torsions:
REMARK  status: ('A' for Active; 'I' for Inactive)
REMARK    1  A    between atoms: _1  and  _3
REMARK    2  A    between atoms: _3  and  _4
REMARK    3  A    between atoms: _3  and  _6
REMARK    4  A    between atoms: _6  and  _7
REMARK    5  A    between atoms: _17  and  _19
REMARK    6  A    between atoms: _19  and  _20
REMARK    7  A    between atoms: _19  and  _22
REMARK    8  A    between atoms: _22  and  _23
REMARK    9  A    between atoms: _26  and  _27
REMARK   10  A    between atoms: _32  and  _34
REMARK   11  A    between atoms: _34  and  _35
REMARK   12  A    between atoms: _34  and  _37
REMARK   13  A    between atoms: _40  and  _42
REMARK   14  A    between atoms: _42  and  _43
REMARK   15  A    between atoms: _45  and  _47
REMARK   16  A    between atoms: _47  and  _48
REMARK   17  A    between atoms: _47  and  _50
REMARK   18  A    between atoms: _50  and  _51
REMARK   19  A    between atoms: _53  and  _57
REMARK   20  A    between atoms: _57  and  _58
REMARK   21  A    between atoms: _57  and  _60
REMARK   22  A    between atoms: _60  and  _61
REMARK   23  A    between atoms: _66  and  _67
REMARK   24  A    between atoms: _69  and  _71
REMARK   25  A    between atoms: _71  and  _72
REMARK   26  A    between atoms: _74  and  _76
REMARK   27  A    between atoms: _76  and  _77
REMARK   28  A    between atoms: _76  and  _79
REMARK   29  A    between atoms: _79  and  _80
REMARK   30  A    between atoms: _82  and  _84
REMARK   31  A    between atoms: _84  and  _85
REMARK   32  A    between atoms: _84  and  _87
REMARK   33  A    between atoms: _90  and  _92
REMARK   34  A    between atoms: _92  and  _93
REMARK   35  A    between atoms: _92  and  _95
REMARK   36  A    between atoms: _97  and  _99
REMARK   37  A    between atoms: _99  and  _100
REMARK   38  A    between atoms: _103  and  _105
REMARK   39  A    between atoms: _105  and  _106
REMARK   40  A    between atoms: _109  and  _111
REMARK   41  A    between atoms: _111  and  _112
REMARK   42  A    between atoms: _111  and  _114
REMARK   43  A    between atoms: _114  and  _115
REMARK   44  A    between atoms: _115  and  _116
REMARK   45  A    between atoms: _116  and  _117
REMARK   46  A    between atoms: _126  and  _128
REMARK   47  A    between atoms: _128  and  _129
REMARK   48  A    between atoms: _128  and  _131
REMARK   49  A    between atoms: _134  and  _136
REMARK   50  A    between atoms: _136  and  _137
REMARK   51  A    between atoms: _140  and  _142
REMARK   52  A    between atoms: _142  and  _143
REMARK   53  A    between atoms: _142  and  _145
REMARK   54  A    between atoms: _148  and  _150
REMARK   55  A    between atoms: _150  and  _151
REMARK   56  A    between atoms: _150  and  _153
REMARK   57  A    between atoms: _153  and  _154
REMARK   58  A    between atoms: _154  and  _155
REMARK   59  A    between atoms: _155  and  _156
REMARK   60  A    between atoms: _156  and  _157
REMARK   61  A    between atoms: _161  and  _163
REMARK   62  A    between atoms: _163  and  _164
REMARK   63  A    between atoms: _163  and  _166
REMARK   64  A    between atoms: _166  and  _167
REMARK   65  A    between atoms: _167  and  _168
REMARK   66  A    between atoms: _168  and  _169
REMARK   67  A    between atoms: _169  and  _170
REMARK   68  A    between atoms: _174  and  _176
REMARK   69  A    between atoms: _176  and  _177
REMARK   70  A    between atoms: _176  and  _179
REMARK   71  A    between atoms: _179  and  _180
REMARK   72  A    between atoms: _183  and  _185
REMARK   73  A    between atoms: _185  and  _186
REMARK   74  A    between atoms: _185  and  _188
REMARK   75  A    between atoms: _188  and  _189
REMARK   76  A    between atoms: _189  and  _190
REMARK   77  A    between atoms: _193  and  _195
REMARK   78  A    between atoms: _195  and  _196
REMARK   79  A    between atoms: _195  and  _198
REMARK   80  A    between atoms: _198  and  _199
REMARK   81  A    between atoms: _202  and  _204
REMARK   82  A    between atoms: _204  and  _205
REMARK   83  A    between atoms: _204  and  _207
REMARK   84  A    between atoms: _207  and  _208
REMARK   85  A    between atoms: _211  and  _213
REMARK   86  A    between atoms: _213  and  _214
REMARK   87  A    between atoms: _213  and  _216
REMARK   88  A    between atoms: _216  and  _217
REMARK   89  A    between atoms: _220  and  _222
REMARK   90  A    between atoms: _222  and  _223
REMARK   91  A    between atoms: _225  and  _227
REMARK   92  A    between atoms: _227  and  _228
REMARK   93  A    between atoms: _227  and  _230
REMARK   94  A    between atoms: _230  and  _231
REMARK   95  A    between atoms: _234  and  _236
REMARK   96  A    between atoms: _236  and  _237
REMARK   97  A    between atoms: _236  and  _239
REMARK   98  A    between atoms: _239  and  _240
REMARK   99  A    between atoms: _243  and  _245
REMARK  100  A    between atoms: _245  and  _246
REMARK  101  A    between atoms: _245  and  _248
REMARK  102  A    between atoms: _248  and  _249
REMARK  103  A    between atoms: _252  and  _254
REMARK  104  A    between atoms: _254  and  _255
REMARK  105  A    between atoms: _254  and  _257
REMARK  106  A    between atoms: _257  and  _258
REMARK  107  A    between atoms: _263  and  _264
REMARK  108  A    between atoms: _266  and  _268
REMARK  109  A    between atoms: _268  and  _269
REMARK  110  A    between atoms: _268  and  _271
REMARK  111  A    between atoms: _271  and  _272
REMARK  112  A    between atoms: _275  and  _277
REMARK  113  A    between atoms: _277  and  _278
REMARK  114  A    between atoms: _277  and  _280
REMARK  115  A    between atoms: _283  and  _285
REMARK  116  A    between atoms: _285  and  _286
REMARK  117  A    between atoms: _285  and  _288
REMARK  118  A    between atoms: _288  and  _289
REMARK  119  A    between atoms: _292  and  _294
REMARK  120  A    between atoms: _294  and  _295
REMARK  121  A    between atoms: _294  and  _297
REMARK  122  A    between atoms: _297  and  _298
REMARK  123  A    between atoms: _303  and  _305
REMARK  124  A    between atoms: _305  and  _306
REMARK  125  A    between atoms: _305  and  _308
REMARK  126  A    between atoms: _308  and  _309
REMARK  127  A    between atoms: _312  and  _314
REMARK  128  A    between atoms: _314  and  _315
REMARK  129  A    between atoms: _314  and  _317
REMARK  130  A    between atoms: _317  and  _318
REMARK  131  A    between atoms: _318  and  _319
REMARK  132  A    between atoms: _321  and  _323
REMARK  133  A    between atoms: _323  and  _324
REMARK  134  A    between atoms: _326  and  _328
REMARK  135  A    between atoms: _328  and  _329
REMARK  136  A    between atoms: _332  and  _334
REMARK  137  A    between atoms: _334  and  _335
REMARK  138  A    between atoms: _334  and  _337
REMARK  139  A    between atoms: _337  and  _338
REMARK  140  A    between atoms: _341  and  _343
REMARK  141  A    between atoms: _343  and  _344
REMARK  142  A    between atoms: _343  and  _346
REMARK  143  A    between atoms: _346  and  _347
REMARK  144  A    between atoms: _350  and  _352
REMARK  145  A    between atoms: _352  and  _353
REMARK  146  A    between atoms: _352  and  _355
REMARK  147  A    between atoms: _355  and  _356
REMARK  148  A    between atoms: _361  and  _363
REMARK  149  A    between atoms: _363  and  _364
REMARK  150  A    between atoms: _363  and  _366
REMARK  151  A    between atoms: _366  and  _367
REMARK  152  A    between atoms: _373  and  _374
REMARK  153  A    between atoms: _379  and  _381
REMARK  154  A    between atoms: _381  and  _382
REMARK  155  A    between atoms: _381  and  _384
REMARK  156  A    between atoms: _384  and  _385
REMARK  157  A    between atoms: _387  and  _389
REMARK  158  A    between atoms: _389  and  _390
REMARK  159  A    between atoms: _389  and  _392
REMARK  160  A    between atoms: _392  and  _393
REMARK  161  A    between atoms: _398  and  _400
REMARK  162  A    between atoms: _400  and  _401
REMARK  163  A    between atoms: _400  and  _403
REMARK  164  A    between atoms: _403  and  _404
REMARK  165  A    between atoms: _407  and  _409
REMARK  166  A    between atoms: _409  and  _410
REMARK  167  A    between atoms: _413  and  _415
REMARK  168  A    between atoms: _415  and  _416
REMARK  169  A    between atoms: _415  and  _418
REMARK  170  A    between atoms: _421  and  _423
REMARK  171  A    between atoms: _423  and  _424
REMARK  172  A    between atoms: _423  and  _426
REMARK  173  A    between atoms: _426  and  _427
REMARK  174  A    between atoms: _432  and  _434
REMARK  175  A    between atoms: _434  and  _435
REMARK  176  A    between atoms: _434  and  _437
REMARK  177  A    between atoms: _437  and  _438
REMARK  178  A    between atoms: _438  and  _439
REMARK  179  A    between atoms: _439  and  _440
REMARK  180  A    between atoms: _440  and  _441
REMARK  181  A    between atoms: _445  and  _447
REMARK  182  A    between atoms: _447  and  _448
REMARK  183  A    between atoms: _447  and  _450
REMARK  184  A    between atoms: _450  and  _451
REMARK  185  A    between atoms: _454  and  _456
REMARK  186  A    between atoms: _456  and  _457
REMARK  187  A    between atoms: _456  and  _459
REMARK  188  A    between atoms: _459  and  _460
REMARK  189  A    between atoms: _463  and  _465
REMARK  190  A    between atoms: _465  and  _466
REMARK  191  A    between atoms: _465  and  _468
REMARK  192  A    between atoms: _468  and  _469
REMARK  193  A    between atoms: _472  and  _474
REMARK  194  A    between atoms: _474  and  _475
REMARK  195  A    between atoms: _474  and  _477
REMARK  196  A    between atoms: _477  and  _478
REMARK  197  A    between atoms: _484  and  _486
REMARK  198  A    between atoms: _486  and  _487
REMARK  199  A    between atoms: _489  and  _491
REMARK  200  A    between atoms: _491  and  _492
REMARK  201  A    between atoms: _491  and  _494
REMARK  202  A    between atoms: _494  and  _495
REMARK                            x       y       z     vdW  Elec       q    Type
REMARK                         _______ _______ _______ _____ _____    ______ ____
ROOT
ATOM      1  CA  LEU A   4      11.414  -0.298 -22.624  0.00  0.00    +0.149 C 
ENDROOT
BRANCH   1   4
ATOM      2  C   ASN A   3      11.695  -0.597 -20.228  0.00  0.00    +0.241 C 
ATOM      3  O   ASN A   3      11.576  -1.834 -20.303  0.00  0.00    -0.273 OA
ATOM      4  N   LEU A   4      11.608   0.210 -21.272  0.00  0.00    -0.297 N 
ATOM      5  H   LEU A   4      11.680   1.237 -21.124  0.00  0.00    +0.150 HD
BRANCH   2   6
ATOM      6  CA  ASN A   3      11.899   0.089 -18.896  0.00  0.00    +0.158 C 
BRANCH   6   8
ATOM      7  C   SER A   2      12.124   2.516 -18.994  0.00  0.00    +0.243 C 
ATOM      8  N   ASN A   3      11.340   1.441 -18.915  0.00  0.00    -0.297 N 
ATOM      9  H   ASN A   3      10.309   1.566 -18.866  0.00  0.00    +0.150 HD
ATOM     10  O   SER A   2      13.366   2.450 -18.978  0.00  0.00    -0.273 OA
BRANCH   7  11
ATOM     11  CA  SER A   2      11.452   3.878 -19.131  0.00  0.00    +0.178 C 
BRANCH  11  13
ATOM     12  C   PRO A   1       9.545   3.254 -20.525  0.00  0.00    +0.239 C 
ATOM     13  N   SER A   2      10.013   3.793 -19.383  0.00  0.00    -0.295 N 
ATOM     14  H   SER A   2       9.344   4.153 -18.672  0.00  0.00    +0.150 HD
ATOM     15  O   PRO A   1      10.271   2.878 -21.444  0.00  0.00    -0.274 OA
BRANCH  12  20
ATOM     16  N   PRO A   1       7.347   2.725 -19.452  0.00  0.00    -0.210 NA
ATOM     17  CD  PRO A   1       6.358   3.757 -19.100  0.00  0.00    +0.089 C 
ATOM     18  CG  PRO A   1       6.067   4.370 -20.426  0.00  0.00    +0.021 C 
ATOM     19  CB  PRO A   1       7.364   4.410 -21.068  0.00  0.00    +0.028 C 
ATOM     20  CA  PRO A   1       8.023   3.087 -20.687  0.00  0.00    +0.149 C 
ENDBRANCH  12  20
ENDBRANCH  11  13
BRANCH  11  21
ATOM     21  CB  SER A   2      11.837   4.788 -17.938  0.00  0.00    +0.166 C 
BRANCH  21  22
ATOM     22  OG  SER A   2      11.196   4.444 -16.718  0.00  0.00    -0.380 OA
ATOM     23  H   SER A   2      10.215   4.510 -16.832  0.00  0.00    +0.211 HD
ENDBRANCH  21  22
ENDBRANCH  11  21
ENDBRANCH   7  11
ENDBRANCH   6   8
BRANCH   6  24
ATOM     24  CB  ASN A   3      11.283  -0.769 -17.773  0.00  0.00    +0.114 C 
BRANCH  24  25
ATOM     25  CG  ASN A   3      11.989  -0.602 -16.448  0.00  0.00    +0.222 C 
ATOM     26  OD1 ASN A   3      11.344  -0.423 -15.425  0.00  0.00    -0.275 OA
ATOM     27  ND2 ASN A   3      13.308  -0.647 -16.451  0.00  0.00    -0.329 N 
ATOM     28 HD21 ASN A   3      13.834  -0.528 -15.562  0.00  0.00    +0.145 HD
ATOM     29 HD22 ASN A   3      13.821  -0.801 -17.342  0.00  0.00    +0.145 HD
ENDBRANCH  24  25
ENDBRANCH   6  24
ENDBRANCH   2   6
ENDBRANCH   1   4
BRANCH   1  30
ATOM     30  C   LEU A   4      12.271   0.427 -23.677  0.00  0.00    +0.241 C 
ATOM     31  O   LEU A   4      12.018   1.588 -24.017  0.00  0.00    -0.273 OA
ATOM     32  N   ALA A   5      13.265  -0.291 -24.193  0.00  0.00    -0.297 N 
ATOM     33  H   ALA A   5      13.399  -1.267 -23.860  0.00  0.00    +0.150 HD
BRANCH  32  34
ATOM     34  CA  ALA A   5      14.170   0.230 -25.201  0.00  0.00    +0.149 C 
ATOM     35  CB  ALA A   5      15.540  -0.540 -25.167  0.00  0.00    +0.031 C 
BRANCH  34  36
ATOM     36  C   ALA A   5      13.508   0.165 -26.582  0.00  0.00    +0.241 C 
ATOM     37  O   ALA A   5      12.857  -0.825 -26.933  0.00  0.00    -0.273 OA
ATOM     38  N   VAL A   6      13.643   1.231 -27.359  0.00  0.00    -0.297 N 
ATOM     39  H   VAL A   6      14.225   2.030 -27.037  0.00  0.00    +0.150 HD
BRANCH  38  40
ATOM     40  CA  VAL A   6      12.993   1.297 -28.645  0.00  0.00    +0.149 C 
BRANCH  40  41
ATOM     41  C   VAL A   6      13.960   2.033 -29.522  0.00  0.00    +0.241 C 
ATOM     42  O   VAL A   6      14.583   2.994 -29.082  0.00  0.00    -0.273 OA
ATOM     43  N   ASN A   7      14.120   1.570 -30.753  0.00  0.00    -0.298 N 
ATOM     44  H   ASN A   7      13.636   0.694 -31.036  0.00  0.00    +0.150 HD
BRANCH  43  45
ATOM     45  CA  ASN A   7      14.960   2.265 -31.715  0.00  0.00    +0.146 C 
BRANCH  45  46
ATOM     46  C   ASN A   7      14.113   2.979 -32.752  0.00  0.00    +0.227 C 
ATOM     47  O   ASN A   7      12.884   2.854 -32.738  0.00  0.00    -0.286 OA
ENDBRANCH  45  46
BRANCH  45  48
ATOM     48  CB  ASN A   7      15.967   1.318 -32.391  0.00  0.00    +0.112 C 
BRANCH  48  49
ATOM     49  CG  ASN A   7      15.312   0.180 -33.139  0.00  0.00    +0.222 C 
ATOM     50  OD1 ASN A   7      14.107   0.159 -33.377  0.00  0.00    -0.275 OA
ATOM     51  ND2 ASN A   7      16.109  -0.770 -33.521  0.00  0.00    -0.329 N 
ATOM     52 HD21 ASN A   7      17.124  -0.717 -33.301  0.00  0.00    +0.145 HD
ATOM     53 HD22 ASN A   7      15.733  -1.584 -34.047  0.00  0.00    +0.145 HD
ENDBRANCH  48  49
ENDBRANCH  45  48
ENDBRANCH  43  45
ENDBRANCH  40  41
BRANCH  40  54
ATOM     54  CB  VAL A   6      11.626   2.058 -28.587  0.00  0.00    +0.027 C 
ATOM     55  CG2 VAL A   6      10.794   1.604 -27.388  0.00  0.00    +0.002 C 
ATOM     56  CG1 VAL A   6      10.784   1.811 -29.866  0.00  0.00    +0.002 C 
ENDBRANCH  40  54
ENDBRANCH  38  40
ENDBRANCH  34  36
ENDBRANCH  32  34
ENDBRANCH   1  30
BRANCH   1  57
ATOM     57  CB  LEU A   4       9.948  -0.269 -23.022  0.00  0.00    +0.029 C 
BRANCH  57  58
ATOM     58  CG  LEU A   4       8.904  -1.053 -22.226  0.00  0.00    +0.002 C 
ATOM     59  CD2 LEU A   4       9.081  -2.565 -22.388  0.00  0.00    +0.000 C 
ATOM     60  CD1 LEU A   4       7.486  -0.593 -22.638  0.00  0.00    +0.000 C 
ENDBRANCH  57  58
ENDBRANCH   1  57
TORSDOF 22
REMARK  Name = ../refined-set-2016/3iw5/3iw5_pocket.pdb
REMARK  202 active torsions:
REMARK  status: ('A' for Active; 'I' for Inactive)
REMARK    1  A    between atoms: _1  and  _3
REMARK    2  A    between atoms: _3  and  _4
REMARK    3  A    between atoms: _3  and  _6
REMARK    4  A    between atoms: _6  and  _7
REMARK    5  A    between atoms: _17  and  _19
REMARK    6  A    between atoms: _19  and  _20
REMARK    7  A    between atoms: _19  and  _22
REMARK    8  A    between atoms: _22  and  _23
REMARK    9  A    between atoms: _26  and  _27
REMARK   10  A    between atoms: _32  and  _34
REMARK   11  A    between atoms: _34  and  _35
REMARK   12  A    between atoms: _34  and  _37
REMARK   13  A    between atoms: _40  and  _42
REMARK   14  A    between atoms: _42  and  _43
REMARK   15  A    between atoms: _45  and  _47
REMARK   16  A    between atoms: _47  and  _48
REMARK   17  A    between atoms: _47  and  _50
REMARK   18  A    between atoms: _50  and  _51
REMARK   19  A    between atoms: _53  and  _57
REMARK   20  A    between atoms: _57  and  _58
REMARK   21  A    between atoms: _57  and  _60
REMARK   22  A    between atoms: _60  and  _61
REMARK   23  A    between atoms: _66  and  _67
REMARK   24  A    between atoms: _69  and  _71
REMARK   25  A    between atoms: _71  and  _72
REMARK   26  A    between atoms: _74  and  _76
REMARK   27  A    between atoms: _76  and  _77
REMARK   28  A    between atoms: _76  and  _79
REMARK   29  A    between atoms: _79  and  _80
REMARK   30  A    between atoms: _82  and  _84
REMARK   31  A    between atoms: _84  and  _85
REMARK   32  A    between atoms: _84  and  _87
REMARK   33  A    between atoms: _90  and  _92
REMARK   34  A    between atoms: _92  and  _93
REMARK   35  A    between atoms: _92  and  _95
REMARK   36  A    between atoms: _97  and  _99
REMARK   37  A    between atoms: _99  and  _100
REMARK   38  A    between atoms: _103  and  _105
REMARK   39  A    between atoms: _105  and  _106
REMARK   40  A    between atoms: _109  and  _111
REMARK   41  A    between atoms: _111  and  _112
REMARK   42  A    between atoms: _111  and  _114
REMARK   43  A    between atoms: _114  and  _115
REMARK   44  A    between atoms: _115  and  _116
REMARK   45  A    between atoms: _116  and  _117
REMARK   46  A    between atoms: _126  and  _128
REMARK   47  A    between atoms: _128  and  _129
REMARK   48  A    between atoms: _128  and  _131
REMARK   49  A    between atoms: _134  and  _136
REMARK   50  A    between atoms: _136  and  _137
REMARK   51  A    between atoms: _140  and  _142
REMARK   52  A    between atoms: _142  and  _143
REMARK   53  A    between atoms: _142  and  _145
REMARK   54  A    between atoms: _148  and  _150
REMARK   55  A    between atoms: _150  and  _151
REMARK   56  A    between atoms: _150  and  _153
REMARK   57  A    between atoms: _153  and  _154
REMARK   58  A    between atoms: _154  and  _155
REMARK   59  A    between atoms: _155  and  _156
REMARK   60  A    between atoms: _156  and  _157
REMARK   61  A    between atoms: _161  and  _163
REMARK   62  A    between atoms: _163  and  _164
REMARK   63  A    between atoms: _163  and  _166
REMARK   64  A    between atoms: _166  and  _167
REMARK   65  A    between atoms: _167  and  _168
REMARK   66  A    between atoms: _168  and  _169
REMARK   67  A    between atoms: _169  and  _170
REMARK   68  A    between atoms: _174  and  _176
REMARK   69  A    between atoms: _176  and  _177
REMARK   70  A    between atoms: _176  and  _179
REMARK   71  A    between atoms: _179  and  _180
REMARK   72  A    between atoms: _183  and  _185
REMARK   73  A    between atoms: _185  and  _186
REMARK   74  A    between atoms: _185  and  _188
REMARK   75  A    between atoms: _188  and  _189
REMARK   76  A    between atoms: _189  and  _190
REMARK   77  A    between atoms: _193  and  _195
REMARK   78  A    between atoms: _195  and  _196
REMARK   79  A    between atoms: _195  and  _198
REMARK   80  A    between atoms: _198  and  _199
REMARK   81  A    between atoms: _202  and  _204
REMARK   82  A    between atoms: _204  and  _205
REMARK   83  A    between atoms: _204  and  _207
REMARK   84  A    between atoms: _207  and  _208
REMARK   85  A    between atoms: _211  and  _213
REMARK   86  A    between atoms: _213  and  _214
REMARK   87  A    between atoms: _213  and  _216
REMARK   88  A    between atoms: _216  and  _217
REMARK   89  A    between atoms: _220  and  _222
REMARK   90  A    between atoms: _222  and  _223
REMARK   91  A    between atoms: _225  and  _227
REMARK   92  A    between atoms: _227  and  _228
REMARK   93  A    between atoms: _227  and  _230
REMARK   94  A    between atoms: _230  and  _231
REMARK   95  A    between atoms: _234  and  _236
REMARK   96  A    between atoms: _236  and  _237
REMARK   97  A    between atoms: _236  and  _239
REMARK   98  A    between atoms: _239  and  _240
REMARK   99  A    between atoms: _243  and  _245
REMARK  100  A    between atoms: _245  and  _246
REMARK  101  A    between atoms: _245  and  _248
REMARK  102  A    between atoms: _248  and  _249
REMARK  103  A    between atoms: _252  and  _254
REMARK  104  A    between atoms: _254  and  _255
REMARK  105  A    between atoms: _254  and  _257
REMARK  106  A    between atoms: _257  and  _258
REMARK  107  A    between atoms: _263  and  _264
REMARK  108  A    between atoms: _266  and  _268
REMARK  109  A    between atoms: _268  and  _269
REMARK  110  A    between atoms: _268  and  _271
REMARK  111  A    between atoms: _271  and  _272
REMARK  112  A    between atoms: _275  and  _277
REMARK  113  A    between atoms: _277  and  _278
REMARK  114  A    between atoms: _277  and  _280
REMARK  115  A    between atoms: _283  and  _285
REMARK  116  A    between atoms: _285  and  _286
REMARK  117  A    between atoms: _285  and  _288
REMARK  118  A    between atoms: _288  and  _289
REMARK  119  A    between atoms: _292  and  _294
REMARK  120  A    between atoms: _294  and  _295
REMARK  121  A    between atoms: _294  and  _297
REMARK  122  A    between atoms: _297  and  _298
REMARK  123  A    between atoms: _303  and  _305
REMARK  124  A    between atoms: _305  and  _306
REMARK  125  A    between atoms: _305  and  _308
REMARK  126  A    between atoms: _308  and  _309
REMARK  127  A    between atoms: _312  and  _314
REMARK  128  A    between atoms: _314  and  _315
REMARK  129  A    between atoms: _314  and  _317
REMARK  130  A    between atoms: _317  and  _318
REMARK  131  A    between atoms: _318  and  _319
REMARK  132  A    between atoms: _321  and  _323
REMARK  133  A    between atoms: _323  and  _324
REMARK  134  A    between atoms: _326  and  _328
REMARK  135  A    between atoms: _328  and  _329
REMARK  136  A    between atoms: _332  and  _334
REMARK  137  A    between atoms: _334  and  _335
REMARK  138  A    between atoms: _334  and  _337
REMARK  139  A    between atoms: _337  and  _338
REMARK  140  A    between atoms: _341  and  _343
REMARK  141  A    between atoms: _343  and  _344
REMARK  142  A    between atoms: _343  and  _346
REMARK  143  A    between atoms: _346  and  _347
REMARK  144  A    between atoms: _350  and  _352
REMARK  145  A    between atoms: _352  and  _353
REMARK  146  A    between atoms: _352  and  _355
REMARK  147  A    between atoms: _355  and  _356
REMARK  148  A    between atoms: _361  and  _363
REMARK  149  A    between atoms: _363  and  _364
REMARK  150  A    between atoms: _363  and  _366
REMARK  151  A    between atoms: _366  and  _367
REMARK  152  A    between atoms: _373  and  _374
REMARK  153  A    between atoms: _379  and  _381
REMARK  154  A    between atoms: _381  and  _382
REMARK  155  A    between atoms: _381  and  _384
REMARK  156  A    between atoms: _384  and  _385
REMARK  157  A    between atoms: _387  and  _389
REMARK  158  A    between atoms: _389  and  _390
REMARK  159  A    between atoms: _389  and  _392
REMARK  160  A    between atoms: _392  and  _393
REMARK  161  A    between atoms: _398  and  _400
REMARK  162  A    between atoms: _400  and  _401
REMARK  163  A    between atoms: _400  and  _403
REMARK  164  A    between atoms: _403  and  _404
REMARK  165  A    between atoms: _407  and  _409
REMARK  166  A    between atoms: _409  and  _410
REMARK  167  A    between atoms: _413  and  _415
REMARK  168  A    between atoms: _415  and  _416
REMARK  169  A    between atoms: _415  and  _418
REMARK  170  A    between atoms: _421  and  _423
REMARK  171  A    between atoms: _423  and  _424
REMARK  172  A    between atoms: _423  and  _426
REMARK  173  A    between atoms: _426  and  _427
REMARK  174  A    between atoms: _432  and  _434
REMARK  175  A    between atoms: _434  and  _435
REMARK  176  A    between atoms: _434  and  _437
REMARK  177  A    between atoms: _437  and  _438
REMARK  178  A    between atoms: _438  and  _439
REMARK  179  A    between atoms: _439  and  _440
REMARK  180  A    between atoms: _440  and  _441
REMARK  181  A    between atoms: _445  and  _447
REMARK  182  A    between atoms: _447  and  _448
REMARK  183  A    between atoms: _447  and  _450
REMARK  184  A    between atoms: _450  and  _451
REMARK  185  A    between atoms: _454  and  _456
REMARK  186  A    between atoms: _456  and  _457
REMARK  187  A    between atoms: _456  and  _459
REMARK  188  A    between atoms: _459  and  _460
REMARK  189  A    between atoms: _463  and  _465
REMARK  190  A    between atoms: _465  and  _466
REMARK  191  A    between atoms: _465  and  _468
REMARK  192  A    between atoms: _468  and  _469
REMARK  193  A    between atoms: _472  and  _474
REMARK  194  A    between atoms: _474  and  _475
REMARK  195  A    between atoms: _474  and  _477
REMARK  196  A    between atoms: _477  and  _478
REMARK  197  A    between atoms: _484  and  _486
REMARK  198  A    between atoms: _486  and  _487
REMARK  199  A    between atoms: _489  and  _491
REMARK  200  A    between atoms: _491  and  _492
REMARK  201  A    between atoms: _491  and  _494
REMARK  202  A    between atoms: _494  and  _495
REMARK                            x       y       z     vdW  Elec       q    Type
REMARK                         _______ _______ _______ _____ _____    ______ ____
ROOT
ATOM      1  C   LEU A   3      14.389  -4.486 -18.288  0.00  0.00    +0.241 C 
ATOM      2  N   ASP A   4      15.500  -4.884 -17.704  0.00  0.00    -0.297 N 
ATOM      3  H   ASP A   4      16.383  -4.841 -18.251  0.00  0.00    +0.150 HD
ATOM      4  O   LEU A   3      13.302  -4.517 -17.744  0.00  0.00    -0.273 OA
ENDROOT
BRANCH   2   5
ATOM      5  CA  ASP A   4      15.563  -5.372 -16.362  0.00  0.00    +0.160 C 
BRANCH   5   6
ATOM      6  C   ASP A   4      15.450  -4.153 -15.441  0.00  0.00    +0.241 C 
ATOM      7  O   ASP A   4      14.624  -4.153 -14.515  0.00  0.00    -0.273 OA
ATOM      8  N   PHE A   5      16.295  -3.144 -15.699  0.00  0.00    -0.297 N 
ATOM      9  H   PHE A   5      16.965  -3.264 -16.485  0.00  0.00    +0.150 HD
BRANCH   8  10
ATOM     10  CA  PHE A   5      16.340  -1.875 -14.945  0.00  0.00    +0.153 C 
BRANCH  10  11
ATOM     11  C   PHE A   5      16.612  -0.753 -15.938  0.00  0.00    +0.241 C 
ATOM     12  N   GLY A   6      16.089   0.448 -15.665  0.00  0.00    -0.295 N 
ATOM     13  H   GLY A   6      15.660   0.610 -14.731  0.00  0.00    +0.150 HD
ATOM     14  O   PHE A   5      17.317  -0.974 -16.927  0.00  0.00    -0.273 OA
BRANCH  12  15
ATOM     15  CA  GLY A   6      16.101   1.549 -16.644  0.00  0.00    +0.176 C 
BRANCH  15  16
ATOM     16  C   GLY A   6      17.209   2.591 -16.516  0.00  0.00    +0.243 C 
ATOM     17  O   GLY A   6      18.076   2.499 -15.633  0.00  0.00    -0.273 OA
ATOM     18  N   LEU A   7      17.155   3.577 -17.427  0.00  0.00    -0.298 N 
ATOM     19  H   LEU A   7      16.422   3.502 -18.161  0.00  0.00    +0.150 HD
BRANCH  18  20
ATOM     20  CA  LEU A   7      18.048   4.766 -17.483  0.00  0.00    +0.137 C 
BRANCH  20  21
ATOM     21  C   LEU A   7      17.354   5.803 -18.375  0.00  0.00    +0.227 C 
ATOM     22  O   LEU A   7      17.722   6.984 -18.427  0.00  0.00    -0.286 OA
ENDBRANCH  20  21
BRANCH  20  23
ATOM     23  CB  LEU A   7      19.419   4.401 -18.071  0.00  0.00    +0.028 C 
BRANCH  23  24
ATOM     24  CG  LEU A   7      20.593   5.385 -18.185  0.00  0.00    +0.002 C 
ATOM     25  CD2 LEU A   7      21.860   4.592 -18.404  0.00  0.00    +0.000 C 
ATOM     26  CD1 LEU A   7      20.456   6.426 -19.288  0.00  0.00    +0.000 C 
ENDBRANCH  23  24
ENDBRANCH  20  23
ENDBRANCH  18  20
ENDBRANCH  15  16
ENDBRANCH  12  15
ENDBRANCH  10  11
BRANCH  10  27
ATOM     27  CB  PHE A   5      17.467  -1.843 -13.900  0.00  0.00    +0.055 C 
BRANCH  27  28
ATOM     28  CG  PHE A   5      17.399  -2.931 -12.876  0.00  0.00    -0.020 A 
ATOM     29  CD2 PHE A   5      16.374  -2.957 -11.925  0.00  0.00    -0.004 A 
ATOM     30  CE2 PHE A   5      16.321  -3.992 -10.948  0.00  0.00    -0.000 A 
ATOM     31  CZ  PHE A   5      17.313  -4.991 -10.924  0.00  0.00    -0.000 A 
ATOM     32  CE1 PHE A   5      18.354  -4.959 -11.869  0.00  0.00    -0.000 A 
ATOM     33  CD1 PHE A   5      18.397  -3.924 -12.831  0.00  0.00    -0.004 A 
ENDBRANCH  27  28
ENDBRANCH  10  27
ENDBRANCH   8  10
ENDBRANCH   5   6
BRANCH   5  34
ATOM     34  CB  ASP A   4      16.914  -6.099 -16.164  0.00  0.00    +0.143 C 
BRANCH  34  35
ATOM     35  CG  ASP A   4      18.128  -5.322 -16.801  0.00  0.00    +0.367 C 
ATOM     36  OD2 ASP A   4      19.296  -5.758 -16.590  0.00  0.00    -0.246 OA
ATOM     37  OD1 ASP A   4      17.916  -4.289 -17.519  0.00  0.00    -0.246 OA
ENDBRANCH  34  35
ENDBRANCH   5  34
ENDBRANCH   2   5
BRANCH   1  38
ATOM     38  CA  LEU A   3      14.561  -4.020 -19.717  0.00  0.00    +0.149 C 
BRANCH  38  40
ATOM     39  C   ILE A   2      13.329  -5.064 -21.528  0.00  0.00    +0.241 C 
ATOM     40  N   LEU A   3      13.367  -4.214 -20.509  0.00  0.00    -0.297 N 
ATOM     41  H   LEU A   3      12.512  -3.671 -20.273  0.00  0.00    +0.150 HD
ATOM     42  O   ILE A   2      14.286  -5.768 -21.855  0.00  0.00    -0.273 OA
BRANCH  39  43
ATOM     43  CA  ILE A   2      12.018  -5.100 -22.323  0.00  0.00    +0.148 C 
BRANCH  43  45
ATOM     44  C   LYS A   1      12.550  -4.273 -24.549  0.00  0.00    +0.238 C 
ATOM     45  N   ILE A   2      12.270  -5.281 -23.746  0.00  0.00    -0.297 N 
ATOM     46  H   ILE A   2      12.228  -6.241 -24.144  0.00  0.00    +0.150 HD
ATOM     47  O   LYS A   1      12.579  -3.125 -24.169  0.00  0.00    -0.274 OA
BRANCH  44  48
ATOM     48  CA  LYS A   1      12.915  -4.615 -25.987  0.00  0.00    +0.145 C 
BRANCH  48  49
ATOM     49  N   LYS A   1      12.419  -3.597 -26.934  0.00  0.00    -0.238 NA
ATOM     50  H   LYS A   1      12.591  -2.595 -26.716  0.00  0.00    +0.142 HD
ENDBRANCH  48  49
BRANCH  48  51
ATOM     51  CB  LYS A   1      14.447  -4.716 -26.047  0.00  0.00    +0.026 C 
BRANCH  51  52
ATOM     52  CG  LYS A   1      14.986  -5.168 -27.349  0.00  0.00    -0.000 C 
BRANCH  52  53
ATOM     53  CD  LYS A   1      16.474  -5.069 -27.394  0.00  0.00    -0.024 C 
BRANCH  53  54
ATOM     54  CE  LYS A   1      16.998  -5.681 -28.724  0.00  0.00    -0.086 C 
BRANCH  54  55
ATOM     55  NZ  LYS A   1      18.462  -5.796 -28.642  0.00  0.00    +0.380 N 
ATOM     56  HZ1 LYS A   1      18.716  -6.412 -27.844  0.00  0.00    -0.089 HD
ATOM     57  HZ2 LYS A   1      18.875  -4.852 -28.498  0.00  0.00    -0.089 HD
ATOM     58  HZ3 LYS A   1      18.826  -6.205 -29.526  0.00  0.00    -0.089 HD
ENDBRANCH  54  55
ENDBRANCH  53  54
ENDBRANCH  52  53
ENDBRANCH  51  52
ENDBRANCH  48  51
ENDBRANCH  44  48
ENDBRANCH  43  45
BRANCH  43  59
ATOM     59  CB  ILE A   2      11.087  -6.213 -21.772  0.00  0.00    +0.027 C 
ATOM     60  CG2 ILE A   2      10.879  -6.063 -20.231  0.00  0.00    +0.002 C 
BRANCH  59  61
ATOM     61  CG1 ILE A   2       9.812  -6.279 -22.620  0.00  0.00    +0.002 C 
ATOM     62  CD1 ILE A   2       8.708  -7.113 -22.047  0.00  0.00    +0.000 C 
ENDBRANCH  59  61
ENDBRANCH  43  59
ENDBRANCH  39  43
ENDBRANCH  38  40
BRANCH  38  63
ATOM     63  CB  LEU A   3      14.976  -2.562 -19.727  0.00  0.00    +0.029 C 
BRANCH  63  64
ATOM     64  CG  LEU A   3      15.077  -1.855 -21.072  0.00  0.00    +0.002 C 
ATOM     65  CD2 LEU A   3      15.486  -0.360 -20.872  0.00  0.00    +0.000 C 
ATOM     66  CD1 LEU A   3      16.055  -2.567 -21.913  0.00  0.00    +0.000 C 
ENDBRANCH  63  64
ENDBRANCH  38  63
ENDBRANCH   1  38
TORSDOF 29
REMARK  Name = ../refined-set-2016/3iw5/3iw5_pocket.pdb
REMARK  202 active torsions:
REMARK  status: ('A' for Active; 'I' for Inactive)
REMARK    1  A    between atoms: _1  and  _3
REMARK    2  A    between atoms: _3  and  _4
REMARK    3  A    between atoms: _3  and  _6
REMARK    4  A    between atoms: _6  and  _7
REMARK    5  A    between atoms: _17  and  _19
REMARK    6  A    between atoms: _19  and  _20
REMARK    7  A    between atoms: _19  and  _22
REMARK    8  A    between atoms: _22  and  _23
REMARK    9  A    between atoms: _26  and  _27
REMARK   10  A    between atoms: _32  and  _34
REMARK   11  A    between atoms: _34  and  _35
REMARK   12  A    between atoms: _34  and  _37
REMARK   13  A    between atoms: _40  and  _42
REMARK   14  A    between atoms: _42  and  _43
REMARK   15  A    between atoms: _45  and  _47
REMARK   16  A    between atoms: _47  and  _48
REMARK   17  A    between atoms: _47  and  _50
REMARK   18  A    between atoms: _50  and  _51
REMARK   19  A    between atoms: _53  and  _57
REMARK   20  A    between atoms: _57  and  _58
REMARK   21  A    between atoms: _57  and  _60
REMARK   22  A    between atoms: _60  and  _61
REMARK   23  A    between atoms: _66  and  _67
REMARK   24  A    between atoms: _69  and  _71
REMARK   25  A    between atoms: _71  and  _72
REMARK   26  A    between atoms: _74  and  _76
REMARK   27  A    between atoms: _76  and  _77
REMARK   28  A    between atoms: _76  and  _79
REMARK   29  A    between atoms: _79  and  _80
REMARK   30  A    between atoms: _82  and  _84
REMARK   31  A    between atoms: _84  and  _85
REMARK   32  A    between atoms: _84  and  _87
REMARK   33  A    between atoms: _90  and  _92
REMARK   34  A    between atoms: _92  and  _93
REMARK   35  A    between atoms: _92  and  _95
REMARK   36  A    between atoms: _97  and  _99
REMARK   37  A    between atoms: _99  and  _100
REMARK   38  A    between atoms: _103  and  _105
REMARK   39  A    between atoms: _105  and  _106
REMARK   40  A    between atoms: _109  and  _111
REMARK   41  A    between atoms: _111  and  _112
REMARK   42  A    between atoms: _111  and  _114
REMARK   43  A    between atoms: _114  and  _115
REMARK   44  A    between atoms: _115  and  _116
REMARK   45  A    between atoms: _116  and  _117
REMARK   46  A    between atoms: _126  and  _128
REMARK   47  A    between atoms: _128  and  _129
REMARK   48  A    between atoms: _128  and  _131
REMARK   49  A    between atoms: _134  and  _136
REMARK   50  A    between atoms: _136  and  _137
REMARK   51  A    between atoms: _140  and  _142
REMARK   52  A    between atoms: _142  and  _143
REMARK   53  A    between atoms: _142  and  _145
REMARK   54  A    between atoms: _148  and  _150
REMARK   55  A    between atoms: _150  and  _151
REMARK   56  A    between atoms: _150  and  _153
REMARK   57  A    between atoms: _153  and  _154
REMARK   58  A    between atoms: _154  and  _155
REMARK   59  A    between atoms: _155  and  _156
REMARK   60  A    between atoms: _156  and  _157
REMARK   61  A    between atoms: _161  and  _163
REMARK   62  A    between atoms: _163  and  _164
REMARK   63  A    between atoms: _163  and  _166
REMARK   64  A    between atoms: _166  and  _167
REMARK   65  A    between atoms: _167  and  _168
REMARK   66  A    between atoms: _168  and  _169
REMARK   67  A    between atoms: _169  and  _170
REMARK   68  A    between atoms: _174  and  _176
REMARK   69  A    between atoms: _176  and  _177
REMARK   70  A    between atoms: _176  and  _179
REMARK   71  A    between atoms: _179  and  _180
REMARK   72  A    between atoms: _183  and  _185
REMARK   73  A    between atoms: _185  and  _186
REMARK   74  A    between atoms: _185  and  _188
REMARK   75  A    between atoms: _188  and  _189
REMARK   76  A    between atoms: _189  and  _190
REMARK   77  A    between atoms: _193  and  _195
REMARK   78  A    between atoms: _195  and  _196
REMARK   79  A    between atoms: _195  and  _198
REMARK   80  A    between atoms: _198  and  _199
REMARK   81  A    between atoms: _202  and  _204
REMARK   82  A    between atoms: _204  and  _205
REMARK   83  A    between atoms: _204  and  _207
REMARK   84  A    between atoms: _207  and  _208
REMARK   85  A    between atoms: _211  and  _213
REMARK   86  A    between atoms: _213  and  _214
REMARK   87  A    between atoms: _213  and  _216
REMARK   88  A    between atoms: _216  and  _217
REMARK   89  A    between atoms: _220  and  _222
REMARK   90  A    between atoms: _222  and  _223
REMARK   91  A    between atoms: _225  and  _227
REMARK   92  A    between atoms: _227  and  _228
REMARK   93  A    between atoms: _227  and  _230
REMARK   94  A    between atoms: _230  and  _231
REMARK   95  A    between atoms: _234  and  _236
REMARK   96  A    between atoms: _236  and  _237
REMARK   97  A    between atoms: _236  and  _239
REMARK   98  A    between atoms: _239  and  _240
REMARK   99  A    between atoms: _243  and  _245
REMARK  100  A    between atoms: _245  and  _246
REMARK  101  A    between atoms: _245  and  _248
REMARK  102  A    between atoms: _248  and  _249
REMARK  103  A    between atoms: _252  and  _254
REMARK  104  A    between atoms: _254  and  _255
REMARK  105  A    between atoms: _254  and  _257
REMARK  106  A    between atoms: _257  and  _258
REMARK  107  A    between atoms: _263  and  _264
REMARK  108  A    between atoms: _266  and  _268
REMARK  109  A    between atoms: _268  and  _269
REMARK  110  A    between atoms: _268  and  _271
REMARK  111  A    between atoms: _271  and  _272
REMARK  112  A    between atoms: _275  and  _277
REMARK  113  A    between atoms: _277  and  _278
REMARK  114  A    between atoms: _277  and  _280
REMARK  115  A    between atoms: _283  and  _285
REMARK  116  A    between atoms: _285  and  _286
REMARK  117  A    between atoms: _285  and  _288
REMARK  118  A    between atoms: _288  and  _289
REMARK  119  A    between atoms: _292  and  _294
REMARK  120  A    between atoms: _294  and  _295
REMARK  121  A    between atoms: _294  and  _297
REMARK  122  A    between atoms: _297  and  _298
REMARK  123  A    between atoms: _303  and  _305
REMARK  124  A    between atoms: _305  and  _306
REMARK  125  A    between atoms: _305  and  _308
REMARK  126  A    between atoms: _308  and  _309
REMARK  127  A    between atoms: _312  and  _314
REMARK  128  A    between atoms: _314  and  _315
REMARK  129  A    between atoms: _314  and  _317
REMARK  130  A    between atoms: _317  and  _318
REMARK  131  A    between atoms: _318  and  _319
REMARK  132  A    between atoms: _321  and  _323
REMARK  133  A    between atoms: _323  and  _324
REMARK  134  A    between atoms: _326  and  _328
REMARK  135  A    between atoms: _328  and  _329
REMARK  136  A    between atoms: _332  and  _334
REMARK  137  A    between atoms: _334  and  _335
REMARK  138  A    between atoms: _334  and  _337
REMARK  139  A    between atoms: _337  and  _338
REMARK  140  A    between atoms: _341  and  _343
REMARK  141  A    between atoms: _343  and  _344
REMARK  142  A    between atoms: _343  and  _346
REMARK  143  A    between atoms: _346  and  _347
REMARK  144  A    between atoms: _350  and  _352
REMARK  145  A    between atoms: _352  and  _353
REMARK  146  A    between atoms: _352  and  _355
REMARK  147  A    between atoms: _355  and  _356
REMARK  148  A    between atoms: _361  and  _363
REMARK  149  A    between atoms: _363  and  _364
REMARK  150  A    between atoms: _363  and  _366
REMARK  151  A    between atoms: _366  and  _367
REMARK  152  A    between atoms: _373  and  _374
REMARK  153  A    between atoms: _379  and  _381
REMARK  154  A    between atoms: _381  and  _382
REMARK  155  A    between atoms: _381  and  _384
REMARK  156  A    between atoms: _384  and  _385
REMARK  157  A    between atoms: _387  and  _389
REMARK  158  A    between atoms: _389  and  _390
REMARK  159  A    between atoms: _389  and  _392
REMARK  160  A    between atoms: _392  and  _393
REMARK  161  A    between atoms: _398  and  _400
REMARK  162  A    between atoms: _400  and  _401
REMARK  163  A    between atoms: _400  and  _403
REMARK  164  A    between atoms: _403  and  _404
REMARK  165  A    between atoms: _407  and  _409
REMARK  166  A    between atoms: _409  and  _410
REMARK  167  A    between atoms: _413  and  _415
REMARK  168  A    between atoms: _415  and  _416
REMARK  169  A    between atoms: _415  and  _418
REMARK  170  A    between atoms: _421  and  _423
REMARK  171  A    between atoms: _423  and  _424
REMARK  172  A    between atoms: _423  and  _426
REMARK  173  A    between atoms: _426  and  _427
REMARK  174  A    between atoms: _432  and  _434
REMARK  175  A    between atoms: _434  and  _435
REMARK  176  A    between atoms: _434  and  _437
REMARK  177  A    between atoms: _437  and  _438
REMARK  178  A    between atoms: _438  and  _439
REMARK  179  A    between atoms: _439  and  _440
REMARK  180  A    between atoms: _440  and  _441
REMARK  181  A    between atoms: _445  and  _447
REMARK  182  A    between atoms: _447  and  _448
REMARK  183  A    between atoms: _447  and  _450
REMARK  184  A    between atoms: _450  and  _451
REMARK  185  A    between atoms: _454  and  _456
REMARK  186  A    between atoms: _456  and  _457
REMARK  187  A    between atoms: _456  and  _459
REMARK  188  A    between atoms: _459  and  _460
REMARK  189  A    between atoms: _463  and  _465
REMARK  190  A    between atoms: _465  and  _466
REMARK  191  A    between atoms: _465  and  _468
REMARK  192  A    between atoms: _468  and  _469
REMARK  193  A    between atoms: _472  and  _474
REMARK  194  A    between atoms: _474  and  _475
REMARK  195  A    between atoms: _474  and  _477
REMARK  196  A    between atoms: _477  and  _478
REMARK  197  A    between atoms: _484  and  _486
REMARK  198  A    between atoms: _486  and  _487
REMARK  199  A    between atoms: _489  and  _491
REMARK  200  A    between atoms: _491  and  _492
REMARK  201  A    between atoms: _491  and  _494
REMARK  202  A    between atoms: _494  and  _495
REMARK                            x       y       z     vdW  Elec       q    Type
REMARK                         _______ _______ _______ _____ _____    ______ ____
ROOT
ATOM      1  O   HOH     1      14.706   4.496 -19.393  0.00  0.00    +0.000 OA
ENDROOT
TORSDOF 0
REMARK  Name = ../refined-set-2016/3iw5/3iw5_pocket.pdb
REMARK  202 active torsions:
REMARK  status: ('A' for Active; 'I' for Inactive)
REMARK    1  A    between atoms: _1  and  _3
REMARK    2  A    between atoms: _3  and  _4
REMARK    3  A    between atoms: _3  and  _6
REMARK    4  A    between atoms: _6  and  _7
REMARK    5  A    between atoms: _17  and  _19
REMARK    6  A    between atoms: _19  and  _20
REMARK    7  A    between atoms: _19  and  _22
REMARK    8  A    between atoms: _22  and  _23
REMARK    9  A    between atoms: _26  and  _27
REMARK   10  A    between atoms: _32  and  _34
REMARK   11  A    between atoms: _34  and  _35
REMARK   12  A    between atoms: _34  and  _37
REMARK   13  A    between atoms: _40  and  _42
REMARK   14  A    between atoms: _42  and  _43
REMARK   15  A    between atoms: _45  and  _47
REMARK   16  A    between atoms: _47  and  _48
REMARK   17  A    between atoms: _47  and  _50
REMARK   18  A    between atoms: _50  and  _51
REMARK   19  A    between atoms: _53  and  _57
REMARK   20  A    between atoms: _57  and  _58
REMARK   21  A    between atoms: _57  and  _60
REMARK   22  A    between atoms: _60  and  _61
REMARK   23  A    between atoms: _66  and  _67
REMARK   24  A    between atoms: _69  and  _71
REMARK   25  A    between atoms: _71  and  _72
REMARK   26  A    between atoms: _74  and  _76
REMARK   27  A    between atoms: _76  and  _77
REMARK   28  A    between atoms: _76  and  _79
REMARK   29  A    between atoms: _79  and  _80
REMARK   30  A    between atoms: _82  and  _84
REMARK   31  A    between atoms: _84  and  _85
REMARK   32  A    between atoms: _84  and  _87
REMARK   33  A    between atoms: _90  and  _92
REMARK   34  A    between atoms: _92  and  _93
REMARK   35  A    between atoms: _92  and  _95
REMARK   36  A    between atoms: _97  and  _99
REMARK   37  A    between atoms: _99  and  _100
REMARK   38  A    between atoms: _103  and  _105
REMARK   39  A    between atoms: _105  and  _106
REMARK   40  A    between atoms: _109  and  _111
REMARK   41  A    between atoms: _111  and  _112
REMARK   42  A    between atoms: _111  and  _114
REMARK   43  A    between atoms: _114  and  _115
REMARK   44  A    between atoms: _115  and  _116
REMARK   45  A    between atoms: _116  and  _117
REMARK   46  A    between atoms: _126  and  _128
REMARK   47  A    between atoms: _128  and  _129
REMARK   48  A    between atoms: _128  and  _131
REMARK   49  A    between atoms: _134  and  _136
REMARK   50  A    between atoms: _136  and  _137
REMARK   51  A    between atoms: _140  and  _142
REMARK   52  A    between atoms: _142  and  _143
REMARK   53  A    between atoms: _142  and  _145
REMARK   54  A    between atoms: _148  and  _150
REMARK   55  A    between atoms: _150  and  _151
REMARK   56  A    between atoms: _150  and  _153
REMARK   57  A    between atoms: _153  and  _154
REMARK   58  A    between atoms: _154  and  _155
REMARK   59  A    between atoms: _155  and  _156
REMARK   60  A    between atoms: _156  and  _157
REMARK   61  A    between atoms: _161  and  _163
REMARK   62  A    between atoms: _163  and  _164
REMARK   63  A    between atoms: _163  and  _166
REMARK   64  A    between atoms: _166  and  _167
REMARK   65  A    between atoms: _167  and  _168
REMARK   66  A    between atoms: _168  and  _169
REMARK   67  A    between atoms: _169  and  _170
REMARK   68  A    between atoms: _174  and  _176
REMARK   69  A    between atoms: _176  and  _177
REMARK   70  A    between atoms: _176  and  _179
REMARK   71  A    between atoms: _179  and  _180
REMARK   72  A    between atoms: _183  and  _185
REMARK   73  A    between atoms: _185  and  _186
REMARK   74  A    between atoms: _185  and  _188
REMARK   75  A    between atoms: _188  and  _189
REMARK   76  A    between atoms: _189  and  _190
REMARK   77  A    between atoms: _193  and  _195
REMARK   78  A    between atoms: _195  and  _196
REMARK   79  A    between atoms: _195  and  _198
REMARK   80  A    between atoms: _198  and  _199
REMARK   81  A    between atoms: _202  and  _204
REMARK   82  A    between atoms: _204  and  _205
REMARK   83  A    between atoms: _204  and  _207
REMARK   84  A    between atoms: _207  and  _208
REMARK   85  A    between atoms: _211  and  _213
REMARK   86  A    between atoms: _213  and  _214
REMARK   87  A    between atoms: _213  and  _216
REMARK   88  A    between atoms: _216  and  _217
REMARK   89  A    between atoms: _220  and  _222
REMARK   90  A    between atoms: _222  and  _223
REMARK   91  A    between atoms: _225  and  _227
REMARK   92  A    between atoms: _227  and  _228
REMARK   93  A    between atoms: _227  and  _230
REMARK   94  A    between atoms: _230  and  _231
REMARK   95  A    between atoms: _234  and  _236
REMARK   96  A    between atoms: _236  and  _237
REMARK   97  A    between atoms: _236  and  _239
REMARK   98  A    between atoms: _239  and  _240
REMARK   99  A    between atoms: _243  and  _245
REMARK  100  A    between atoms: _245  and  _246
REMARK  101  A    between atoms: _245  and  _248
REMARK  102  A    between atoms: _248  and  _249
REMARK  103  A    between atoms: _252  and  _254
REMARK  104  A    between atoms: _254  and  _255
REMARK  105  A    between atoms: _254  and  _257
REMARK  106  A    between atoms: _257  and  _258
REMARK  107  A    between atoms: _263  and  _264
REMARK  108  A    between atoms: _266  and  _268
REMARK  109  A    between atoms: _268  and  _269
REMARK  110  A    between atoms: _268  and  _271
REMARK  111  A    between atoms: _271  and  _272
REMARK  112  A    between atoms: _275  and  _277
REMARK  113  A    between atoms: _277  and  _278
REMARK  114  A    between atoms: _277  and  _280
REMARK  115  A    between atoms: _283  and  _285
REMARK  116  A    between atoms: _285  and  _286
REMARK  117  A    between atoms: _285  and  _288
REMARK  118  A    between atoms: _288  and  _289
REMARK  119  A    between atoms: _292  and  _294
REMARK  120  A    between atoms: _294  and  _295
REMARK  121  A    between atoms: _294  and  _297
REMARK  122  A    between atoms: _297  and  _298
REMARK  123  A    between atoms: _303  and  _305
REMARK  124  A    between atoms: _305  and  _306
REMARK  125  A    between atoms: _305  and  _308
REMARK  126  A    between atoms: _308  and  _309
REMARK  127  A    between atoms: _312  and  _314
REMARK  128  A    between atoms: _314  and  _315
REMARK  129  A    between atoms: _314  and  _317
REMARK  130  A    between atoms: _317  and  _318
REMARK  131  A    between atoms: _318  and  _319
REMARK  132  A    between atoms: _321  and  _323
REMARK  133  A    between atoms: _323  and  _324
REMARK  134  A    between atoms: _326  and  _328
REMARK  135  A    between atoms: _328  and  _329
REMARK  136  A    between atoms: _332  and  _334
REMARK  137  A    between atoms: _334  and  _335
REMARK  138  A    between atoms: _334  and  _337
REMARK  139  A    between atoms: _337  and  _338
REMARK  140  A    between atoms: _341  and  _343
REMARK  141  A    between atoms: _343  and  _344
REMARK  142  A    between atoms: _343  and  _346
REMARK  143  A    between atoms: _346  and  _347
REMARK  144  A    between atoms: _350  and  _352
REMARK  145  A    between atoms: _352  and  _353
REMARK  146  A    between atoms: _352  and  _355
REMARK  147  A    between atoms: _355  and  _356
REMARK  148  A    between atoms: _361  and  _363
REMARK  149  A    between atoms: _363  and  _364
REMARK  150  A    between atoms: _363  and  _366
REMARK  151  A    between atoms: _366  and  _367
REMARK  152  A    between atoms: _373  and  _374
REMARK  153  A    between atoms: _379  and  _381
REMARK  154  A    between atoms: _381  and  _382
REMARK  155  A    between atoms: _381  and  _384
REMARK  156  A    between atoms: _384  and  _385
REMARK  157  A    between atoms: _387  and  _389
REMARK  158  A    between atoms: _389  and  _390
REMARK  159  A    between atoms: _389  and  _392
REMARK  160  A    between atoms: _392  and  _393
REMARK  161  A    between atoms: _398  and  _400
REMARK  162  A    between atoms: _400  and  _401
REMARK  163  A    between atoms: _400  and  _403
REMARK  164  A    between atoms: _403  and  _404
REMARK  165  A    between atoms: _407  and  _409
REMARK  166  A    between atoms: _409  and  _410
REMARK  167  A    between atoms: _413  and  _415
REMARK  168  A    between atoms: _415  and  _416
REMARK  169  A    between atoms: _415  and  _418
REMARK  170  A    between atoms: _421  and  _423
REMARK  171  A    between atoms: _423  and  _424
REMARK  172  A    between atoms: _423  and  _426
REMARK  173  A    between atoms: _426  and  _427
REMARK  174  A    between atoms: _432  and  _434
REMARK  175  A    between atoms: _434  and  _435
REMARK  176  A    between atoms: _434  and  _437
REMARK  177  A    between atoms: _437  and  _438
REMARK  178  A    between atoms: _438  and  _439
REMARK  179  A    between atoms: _439  and  _440
REMARK  180  A    between atoms: _440  and  _441
REMARK  181  A    between atoms: _445  and  _447
REMARK  182  A    between atoms: _447  and  _448
REMARK  183  A    between atoms: _447  and  _450
REMARK  184  A    between atoms: _450  and  _451
REMARK  185  A    between atoms: _454  and  _456
REMARK  186  A    between atoms: _456  and  _457
REMARK  187  A    between atoms: _456  and  _459
REMARK  188  A    between atoms: _459  and  _460
REMARK  189  A    between atoms: _463  and  _465
REMARK  190  A    between atoms: _465  and  _466
REMARK  191  A    between atoms: _465  and  _468
REMARK  192  A    between atoms: _468  and  _469
REMARK  193  A    between atoms: _472  and  _474
REMARK  194  A    between atoms: _474  and  _475
REMARK  195  A    between atoms: _474  and  _477
REMARK  196  A    between atoms: _477  and  _478
REMARK  197  A    between atoms: _484  and  _486
REMARK  198  A    between atoms: _486  and  _487
REMARK  199  A    between atoms: _489  and  _491
REMARK  200  A    between atoms: _491  and  _492
REMARK  201  A    between atoms: _491  and  _494
REMARK  202  A    between atoms: _494  and  _495
REMARK                            x       y       z     vdW  Elec       q    Type
REMARK                         _______ _______ _______ _____ _____    ______ ____
ROOT
ATOM      1  O   HOH     1      19.984  -4.175 -27.175  0.00  0.00    +0.000 OA
ENDROOT
TORSDOF 0
REMARK  Name = ../refined-set-2016/3iw5/3iw5_pocket.pdb
REMARK  202 active torsions:
REMARK  status: ('A' for Active; 'I' for Inactive)
REMARK    1  A    between atoms: _1  and  _3
REMARK    2  A    between atoms: _3  and  _4
REMARK    3  A    between atoms: _3  and  _6
REMARK    4  A    between atoms: _6  and  _7
REMARK    5  A    between atoms: _17  and  _19
REMARK    6  A    between atoms: _19  and  _20
REMARK    7  A    between atoms: _19  and  _22
REMARK    8  A    between atoms: _22  and  _23
REMARK    9  A    between atoms: _26  and  _27
REMARK   10  A    between atoms: _32  and  _34
REMARK   11  A    between atoms: _34  and  _35
REMARK   12  A    between atoms: _34  and  _37
REMARK   13  A    between atoms: _40  and  _42
REMARK   14  A    between atoms: _42  and  _43
REMARK   15  A    between atoms: _45  and  _47
REMARK   16  A    between atoms: _47  and  _48
REMARK   17  A    between atoms: _47  and  _50
REMARK   18  A    between atoms: _50  and  _51
REMARK   19  A    between atoms: _53  and  _57
REMARK   20  A    between atoms: _57  and  _58
REMARK   21  A    between atoms: _57  and  _60
REMARK   22  A    between atoms: _60  and  _61
REMARK   23  A    between atoms: _66  and  _67
REMARK   24  A    between atoms: _69  and  _71
REMARK   25  A    between atoms: _71  and  _72
REMARK   26  A    between atoms: _74  and  _76
REMARK   27  A    between atoms: _76  and  _77
REMARK   28  A    between atoms: _76  and  _79
REMARK   29  A    between atoms: _79  and  _80
REMARK   30  A    between atoms: _82  and  _84
REMARK   31  A    between atoms: _84  and  _85
REMARK   32  A    between atoms: _84  and  _87
REMARK   33  A    between atoms: _90  and  _92
REMARK   34  A    between atoms: _92  and  _93
REMARK   35  A    between atoms: _92  and  _95
REMARK   36  A    between atoms: _97  and  _99
REMARK   37  A    between atoms: _99  and  _100
REMARK   38  A    between atoms: _103  and  _105
REMARK   39  A    between atoms: _105  and  _106
REMARK   40  A    between atoms: _109  and  _111
REMARK   41  A    between atoms: _111  and  _112
REMARK   42  A    between atoms: _111  and  _114
REMARK   43  A    between atoms: _114  and  _115
REMARK   44  A    between atoms: _115  and  _116
REMARK   45  A    between atoms: _116  and  _117
REMARK   46  A    between atoms: _126  and  _128
REMARK   47  A    between atoms: _128  and  _129
REMARK   48  A    between atoms: _128  and  _131
REMARK   49  A    between atoms: _134  and  _136
REMARK   50  A    between atoms: _136  and  _137
REMARK   51  A    between atoms: _140  and  _142
REMARK   52  A    between atoms: _142  and  _143
REMARK   53  A    between atoms: _142  and  _145
REMARK   54  A    between atoms: _148  and  _150
REMARK   55  A    between atoms: _150  and  _151
REMARK   56  A    between atoms: _150  and  _153
REMARK   57  A    between atoms: _153  and  _154
REMARK   58  A    between atoms: _154  and  _155
REMARK   59  A    between atoms: _155  and  _156
REMARK   60  A    between atoms: _156  and  _157
REMARK   61  A    between atoms: _161  and  _163
REMARK   62  A    between atoms: _163  and  _164
REMARK   63  A    between atoms: _163  and  _166
REMARK   64  A    between atoms: _166  and  _167
REMARK   65  A    between atoms: _167  and  _168
REMARK   66  A    between atoms: _168  and  _169
REMARK   67  A    between atoms: _169  and  _170
REMARK   68  A    between atoms: _174  and  _176
REMARK   69  A    between atoms: _176  and  _177
REMARK   70  A    between atoms: _176  and  _179
REMARK   71  A    between atoms: _179  and  _180
REMARK   72  A    between atoms: _183  and  _185
REMARK   73  A    between atoms: _185  and  _186
REMARK   74  A    between atoms: _185  and  _188
REMARK   75  A    between atoms: _188  and  _189
REMARK   76  A    between atoms: _189  and  _190
REMARK   77  A    between atoms: _193  and  _195
REMARK   78  A    between atoms: _195  and  _196
REMARK   79  A    between atoms: _195  and  _198
REMARK   80  A    between atoms: _198  and  _199
REMARK   81  A    between atoms: _202  and  _204
REMARK   82  A    between atoms: _204  and  _205
REMARK   83  A    between atoms: _204  and  _207
REMARK   84  A    between atoms: _207  and  _208
REMARK   85  A    between atoms: _211  and  _213
REMARK   86  A    between atoms: _213  and  _214
REMARK   87  A    between atoms: _213  and  _216
REMARK   88  A    between atoms: _216  and  _217
REMARK   89  A    between atoms: _220  and  _222
REMARK   90  A    between atoms: _222  and  _223
REMARK   91  A    between atoms: _225  and  _227
REMARK   92  A    between atoms: _227  and  _228
REMARK   93  A    between atoms: _227  and  _230
REMARK   94  A    between atoms: _230  and  _231
REMARK   95  A    between atoms: _234  and  _236
REMARK   96  A    between atoms: _236  and  _237
REMARK   97  A    between atoms: _236  and  _239
REMARK   98  A    between atoms: _239  and  _240
REMARK   99  A    between atoms: _243  and  _245
REMARK  100  A    between atoms: _245  and  _246
REMARK  101  A    between atoms: _245  and  _248
REMARK  102  A    between atoms: _248  and  _249
REMARK  103  A    between atoms: _252  and  _254
REMARK  104  A    between atoms: _254  and  _255
REMARK  105  A    between atoms: _254  and  _257
REMARK  106  A    between atoms: _257  and  _258
REMARK  107  A    between atoms: _263  and  _264
REMARK  108  A    between atoms: _266  and  _268
REMARK  109  A    between atoms: _268  and  _269
REMARK  110  A    between atoms: _268  and  _271
REMARK  111  A    between atoms: _271  and  _272
REMARK  112  A    between atoms: _275  and  _277
REMARK  113  A    between atoms: _277  and  _278
REMARK  114  A    between atoms: _277  and  _280
REMARK  115  A    between atoms: _283  and  _285
REMARK  116  A    between atoms: _285  and  _286
REMARK  117  A    between atoms: _285  and  _288
REMARK  118  A    between atoms: _288  and  _289
REMARK  119  A    between atoms: _292  and  _294
REMARK  120  A    between atoms: _294  and  _295
REMARK  121  A    between atoms: _294  and  _297
REMARK  122  A    between atoms: _297  and  _298
REMARK  123  A    between atoms: _303  and  _305
REMARK  124  A    between atoms: _305  and  _306
REMARK  125  A    between atoms: _305  and  _308
REMARK  126  A    between atoms: _308  and  _309
REMARK  127  A    between atoms: _312  and  _314
REMARK  128  A    between atoms: _314  and  _315
REMARK  129  A    between atoms: _314  and  _317
REMARK  130  A    between atoms: _317  and  _318
REMARK  131  A    between atoms: _318  and  _319
REMARK  132  A    between atoms: _321  and  _323
REMARK  133  A    between atoms: _323  and  _324
REMARK  134  A    between atoms: _326  and  _328
REMARK  135  A    between atoms: _328  and  _329
REMARK  136  A    between atoms: _332  and  _334
REMARK  137  A    between atoms: _334  and  _335
REMARK  138  A    between atoms: _334  and  _337
REMARK  139  A    between atoms: _337  and  _338
REMARK  140  A    between atoms: _341  and  _343
REMARK  141  A    between atoms: _343  and  _344
REMARK  142  A    between atoms: _343  and  _346
REMARK  143  A    between atoms: _346  and  _347
REMARK  144  A    between atoms: _350  and  _352
REMARK  145  A    between atoms: _352  and  _353
REMARK  146  A    between atoms: _352  and  _355
REMARK  147  A    between atoms: _355  and  _356
REMARK  148  A    between atoms: _361  and  _363
REMARK  149  A    between atoms: _363  and  _364
REMARK  150  A    between atoms: _363  and  _366
REMARK  151  A    between atoms: _366  and  _367
REMARK  152  A    between atoms: _373  and  _374
REMARK  153  A    between atoms: _379  and  _381
REMARK  154  A    between atoms: _381  and  _382
REMARK  155  A    between atoms: _381  and  _384
REMARK  156  A    between atoms: _384  and  _385
REMARK  157  A    between atoms: _387  and  _389
REMARK  158  A    between atoms: _389  and  _390
REMARK  159  A    between atoms: _389  and  _392
REMARK  160  A    between atoms: _392  and  _393
REMARK  161  A    between atoms: _398  and  _400
REMARK  162  A    between atoms: _400  and  _401
REMARK  163  A    between atoms: _400  and  _403
REMARK  164  A    between atoms: _403  and  _404
REMARK  165  A    between atoms: _407  and  _409
REMARK  166  A    between atoms: _409  and  _410
REMARK  167  A    between atoms: _413  and  _415
REMARK  168  A    between atoms: _415  and  _416
REMARK  169  A    between atoms: _415  and  _418
REMARK  170  A    between atoms: _421  and  _423
REMARK  171  A    between atoms: _423  and  _424
REMARK  172  A    between atoms: _423  and  _426
REMARK  173  A    between atoms: _426  and  _427
REMARK  174  A    between atoms: _432  and  _434
REMARK  175  A    between atoms: _434  and  _435
REMARK  176  A    between atoms: _434  and  _437
REMARK  177  A    between atoms: _437  and  _438
REMARK  178  A    between atoms: _438  and  _439
REMARK  179  A    between atoms: _439  and  _440
REMARK  180  A    between atoms: _440  and  _441
REMARK  181  A    between atoms: _445  and  _447
REMARK  182  A    between atoms: _447  and  _448
REMARK  183  A    between atoms: _447  and  _450
REMARK  184  A    between atoms: _450  and  _451
REMARK  185  A    between atoms: _454  and  _456
REMARK  186  A    between atoms: _456  and  _457
REMARK  187  A    between atoms: _456  and  _459
REMARK  188  A    between atoms: _459  and  _460
REMARK  189  A    between atoms: _463  and  _465
REMARK  190  A    between atoms: _465  and  _466
REMARK  191  A    between atoms: _465  and  _468
REMARK  192  A    between atoms: _468  and  _469
REMARK  193  A    between atoms: _472  and  _474
REMARK  194  A    between atoms: _474  and  _475
REMARK  195  A    between atoms: _474  and  _477
REMARK  196  A    between atoms: _477  and  _478
REMARK  197  A    between atoms: _484  and  _486
REMARK  198  A    between atoms: _486  and  _487
REMARK  199  A    between atoms: _489  and  _491
REMARK  200  A    between atoms: _491  and  _492
REMARK  201  A    between atoms: _491  and  _494
REMARK  202  A    between atoms: _494  and  _495
REMARK                            x       y       z     vdW  Elec       q    Type
REMARK                         _______ _______ _______ _____ _____    ______ ____
ROOT
ATOM      1  O   HOH     1      21.395 -12.836 -23.783  0.00  0.00    +0.000 OA
ENDROOT
TORSDOF 0
REMARK  Name = ../refined-set-2016/3iw5/3iw5_pocket.pdb
REMARK  202 active torsions:
REMARK  status: ('A' for Active; 'I' for Inactive)
REMARK    1  A    between atoms: _1  and  _3
REMARK    2  A    between atoms: _3  and  _4
REMARK    3  A    between atoms: _3  and  _6
REMARK    4  A    between atoms: _6  and  _7
REMARK    5  A    between atoms: _17  and  _19
REMARK    6  A    between atoms: _19  and  _20
REMARK    7  A    between atoms: _19  and  _22
REMARK    8  A    between atoms: _22  and  _23
REMARK    9  A    between atoms: _26  and  _27
REMARK   10  A    between atoms: _32  and  _34
REMARK   11  A    between atoms: _34  and  _35
REMARK   12  A    between atoms: _34  and  _37
REMARK   13  A    between atoms: _40  and  _42
REMARK   14  A    between atoms: _42  and  _43
REMARK   15  A    between atoms: _45  and  _47
REMARK   16  A    between atoms: _47  and  _48
REMARK   17  A    between atoms: _47  and  _50
REMARK   18  A    between atoms: _50  and  _51
REMARK   19  A    between atoms: _53  and  _57
REMARK   20  A    between atoms: _57  and  _58
REMARK   21  A    between atoms: _57  and  _60
REMARK   22  A    between atoms: _60  and  _61
REMARK   23  A    between atoms: _66  and  _67
REMARK   24  A    between atoms: _69  and  _71
REMARK   25  A    between atoms: _71  and  _72
REMARK   26  A    between atoms: _74  and  _76
REMARK   27  A    between atoms: _76  and  _77
REMARK   28  A    between atoms: _76  and  _79
REMARK   29  A    between atoms: _79  and  _80
REMARK   30  A    between atoms: _82  and  _84
REMARK   31  A    between atoms: _84  and  _85
REMARK   32  A    between atoms: _84  and  _87
REMARK   33  A    between atoms: _90  and  _92
REMARK   34  A    between atoms: _92  and  _93
REMARK   35  A    between atoms: _92  and  _95
REMARK   36  A    between atoms: _97  and  _99
REMARK   37  A    between atoms: _99  and  _100
REMARK   38  A    between atoms: _103  and  _105
REMARK   39  A    between atoms: _105  and  _106
REMARK   40  A    between atoms: _109  and  _111
REMARK   41  A    between atoms: _111  and  _112
REMARK   42  A    between atoms: _111  and  _114
REMARK   43  A    between atoms: _114  and  _115
REMARK   44  A    between atoms: _115  and  _116
REMARK   45  A    between atoms: _116  and  _117
REMARK   46  A    between atoms: _126  and  _128
REMARK   47  A    between atoms: _128  and  _129
REMARK   48  A    between atoms: _128  and  _131
REMARK   49  A    between atoms: _134  and  _136
REMARK   50  A    between atoms: _136  and  _137
REMARK   51  A    between atoms: _140  and  _142
REMARK   52  A    between atoms: _142  and  _143
REMARK   53  A    between atoms: _142  and  _145
REMARK   54  A    between atoms: _148  and  _150
REMARK   55  A    between atoms: _150  and  _151
REMARK   56  A    between atoms: _150  and  _153
REMARK   57  A    between atoms: _153  and  _154
REMARK   58  A    between atoms: _154  and  _155
REMARK   59  A    between atoms: _155  and  _156
REMARK   60  A    between atoms: _156  and  _157
REMARK   61  A    between atoms: _161  and  _163
REMARK   62  A    between atoms: _163  and  _164
REMARK   63  A    between atoms: _163  and  _166
REMARK   64  A    between atoms: _166  and  _167
REMARK   65  A    between atoms: _167  and  _168
REMARK   66  A    between atoms: _168  and  _169
REMARK   67  A    between atoms: _169  and  _170
REMARK   68  A    between atoms: _174  and  _176
REMARK   69  A    between atoms: _176  and  _177
REMARK   70  A    between atoms: _176  and  _179
REMARK   71  A    between atoms: _179  and  _180
REMARK   72  A    between atoms: _183  and  _185
REMARK   73  A    between atoms: _185  and  _186
REMARK   74  A    between atoms: _185  and  _188
REMARK   75  A    between atoms: _188  and  _189
REMARK   76  A    between atoms: _189  and  _190
REMARK   77  A    between atoms: _193  and  _195
REMARK   78  A    between atoms: _195  and  _196
REMARK   79  A    between atoms: _195  and  _198
REMARK   80  A    between atoms: _198  and  _199
REMARK   81  A    between atoms: _202  and  _204
REMARK   82  A    between atoms: _204  and  _205
REMARK   83  A    between atoms: _204  and  _207
REMARK   84  A    between atoms: _207  and  _208
REMARK   85  A    between atoms: _211  and  _213
REMARK   86  A    between atoms: _213  and  _214
REMARK   87  A    between atoms: _213  and  _216
REMARK   88  A    between atoms: _216  and  _217
REMARK   89  A    between atoms: _220  and  _222
REMARK   90  A    between atoms: _222  and  _223
REMARK   91  A    between atoms: _225  and  _227
REMARK   92  A    between atoms: _227  and  _228
REMARK   93  A    between atoms: _227  and  _230
REMARK   94  A    between atoms: _230  and  _231
REMARK   95  A    between atoms: _234  and  _236
REMARK   96  A    between atoms: _236  and  _237
REMARK   97  A    between atoms: _236  and  _239
REMARK   98  A    between atoms: _239  and  _240
REMARK   99  A    between atoms: _243  and  _245
REMARK  100  A    between atoms: _245  and  _246
REMARK  101  A    between atoms: _245  and  _248
REMARK  102  A    between atoms: _248  and  _249
REMARK  103  A    between atoms: _252  and  _254
REMARK  104  A    between atoms: _254  and  _255
REMARK  105  A    between atoms: _254  and  _257
REMARK  106  A    between atoms: _257  and  _258
REMARK  107  A    between atoms: _263  and  _264
REMARK  108  A    between atoms: _266  and  _268
REMARK  109  A    between atoms: _268  and  _269
REMARK  110  A    between atoms: _268  and  _271
REMARK  111  A    between atoms: _271  and  _272
REMARK  112  A    between atoms: _275  and  _277
REMARK  113  A    between atoms: _277  and  _278
REMARK  114  A    between atoms: _277  and  _280
REMARK  115  A    between atoms: _283  and  _285
REMARK  116  A    between atoms: _285  and  _286
REMARK  117  A    between atoms: _285  and  _288
REMARK  118  A    between atoms: _288  and  _289
REMARK  119  A    between atoms: _292  and  _294
REMARK  120  A    between atoms: _294  and  _295
REMARK  121  A    between atoms: _294  and  _297
REMARK  122  A    between atoms: _297  and  _298
REMARK  123  A    between atoms: _303  and  _305
REMARK  124  A    between atoms: _305  and  _306
REMARK  125  A    between atoms: _305  and  _308
REMARK  126  A    between atoms: _308  and  _309
REMARK  127  A    between atoms: _312  and  _314
REMARK  128  A    between atoms: _314  and  _315
REMARK  129  A    between atoms: _314  and  _317
REMARK  130  A    between atoms: _317  and  _318
REMARK  131  A    between atoms: _318  and  _319
REMARK  132  A    between atoms: _321  and  _323
REMARK  133  A    between atoms: _323  and  _324
REMARK  134  A    between atoms: _326  and  _328
REMARK  135  A    between atoms: _328  and  _329
REMARK  136  A    between atoms: _332  and  _334
REMARK  137  A    between atoms: _334  and  _335
REMARK  138  A    between atoms: _334  and  _337
REMARK  139  A    between atoms: _337  and  _338
REMARK  140  A    between atoms: _341  and  _343
REMARK  141  A    between atoms: _343  and  _344
REMARK  142  A    between atoms: _343  and  _346
REMARK  143  A    between atoms: _346  and  _347
REMARK  144  A    between atoms: _350  and  _352
REMARK  145  A    between atoms: _352  and  _353
REMARK  146  A    between atoms: _352  and  _355
REMARK  147  A    between atoms: _355  and  _356
REMARK  148  A    between atoms: _361  and  _363
REMARK  149  A    between atoms: _363  and  _364
REMARK  150  A    between atoms: _363  and  _366
REMARK  151  A    between atoms: _366  and  _367
REMARK  152  A    between atoms: _373  and  _374
REMARK  153  A    between atoms: _379  and  _381
REMARK  154  A    between atoms: _381  and  _382
REMARK  155  A    between atoms: _381  and  _384
REMARK  156  A    between atoms: _384  and  _385
REMARK  157  A    between atoms: _387  and  _389
REMARK  158  A    between atoms: _389  and  _390
REMARK  159  A    between atoms: _389  and  _392
REMARK  160  A    between atoms: _392  and  _393
REMARK  161  A    between atoms: _398  and  _400
REMARK  162  A    between atoms: _400  and  _401
REMARK  163  A    between atoms: _400  and  _403
REMARK  164  A    between atoms: _403  and  _404
REMARK  165  A    between atoms: _407  and  _409
REMARK  166  A    between atoms: _409  and  _410
REMARK  167  A    between atoms: _413  and  _415
REMARK  168  A    between atoms: _415  and  _416
REMARK  169  A    between atoms: _415  and  _418
REMARK  170  A    between atoms: _421  and  _423
REMARK  171  A    between atoms: _423  and  _424
REMARK  172  A    between atoms: _423  and  _426
REMARK  173  A    between atoms: _426  and  _427
REMARK  174  A    between atoms: _432  and  _434
REMARK  175  A    between atoms: _434  and  _435
REMARK  176  A    between atoms: _434  and  _437
REMARK  177  A    between atoms: _437  and  _438
REMARK  178  A    between atoms: _438  and  _439
REMARK  179  A    between atoms: _439  and  _440
REMARK  180  A    between atoms: _440  and  _441
REMARK  181  A    between atoms: _445  and  _447
REMARK  182  A    between atoms: _447  and  _448
REMARK  183  A    between atoms: _447  and  _450
REMARK  184  A    between atoms: _450  and  _451
REMARK  185  A    between atoms: _454  and  _456
REMARK  186  A    between atoms: _456  and  _457
REMARK  187  A    between atoms: _456  and  _459
REMARK  188  A    between atoms: _459  and  _460
REMARK  189  A    between atoms: _463  and  _465
REMARK  190  A    between atoms: _465  and  _466
REMARK  191  A    between atoms: _465  and  _468
REMARK  192  A    between atoms: _468  and  _469
REMARK  193  A    between atoms: _472  and  _474
REMARK  194  A    between atoms: _474  and  _475
REMARK  195  A    between atoms: _474  and  _477
REMARK  196  A    between atoms: _477  and  _478
REMARK  197  A    between atoms: _484  and  _486
REMARK  198  A    between atoms: _486  and  _487
REMARK  199  A    between atoms: _489  and  _491
REMARK  200  A    between atoms: _491  and  _492
REMARK  201  A    between atoms: _491  and  _494
REMARK  202  A    between atoms: _494  and  _495
REMARK                            x       y       z     vdW  Elec       q    Type
REMARK                         _______ _______ _______ _____ _____    ______ ____
ROOT
ATOM      1  O   HOH     1      16.414   7.799 -22.748  0.00  0.00    +0.000 OA
ENDROOT
TORSDOF 0
REMARK  Name = ../refined-set-2016/3iw5/3iw5_pocket.pdb
REMARK  202 active torsions:
REMARK  status: ('A' for Active; 'I' for Inactive)
REMARK    1  A    between atoms: _1  and  _3
REMARK    2  A    between atoms: _3  and  _4
REMARK    3  A    between atoms: _3  and  _6
REMARK    4  A    between atoms: _6  and  _7
REMARK    5  A    between atoms: _17  and  _19
REMARK    6  A    between atoms: _19  and  _20
REMARK    7  A    between atoms: _19  and  _22
REMARK    8  A    between atoms: _22  and  _23
REMARK    9  A    between atoms: _26  and  _27
REMARK   10  A    between atoms: _32  and  _34
REMARK   11  A    between atoms: _34  and  _35
REMARK   12  A    between atoms: _34  and  _37
REMARK   13  A    between atoms: _40  and  _42
REMARK   14  A    between atoms: _42  and  _43
REMARK   15  A    between atoms: _45  and  _47
REMARK   16  A    between atoms: _47  and  _48
REMARK   17  A    between atoms: _47  and  _50
REMARK   18  A    between atoms: _50  and  _51
REMARK   19  A    between atoms: _53  and  _57
REMARK   20  A    between atoms: _57  and  _58
REMARK   21  A    between atoms: _57  and  _60
REMARK   22  A    between atoms: _60  and  _61
REMARK   23  A    between atoms: _66  and  _67
REMARK   24  A    between atoms: _69  and  _71
REMARK   25  A    between atoms: _71  and  _72
REMARK   26  A    between atoms: _74  and  _76
REMARK   27  A    between atoms: _76  and  _77
REMARK   28  A    between atoms: _76  and  _79
REMARK   29  A    between atoms: _79  and  _80
REMARK   30  A    between atoms: _82  and  _84
REMARK   31  A    between atoms: _84  and  _85
REMARK   32  A    between atoms: _84  and  _87
REMARK   33  A    between atoms: _90  and  _92
REMARK   34  A    between atoms: _92  and  _93
REMARK   35  A    between atoms: _92  and  _95
REMARK   36  A    between atoms: _97  and  _99
REMARK   37  A    between atoms: _99  and  _100
REMARK   38  A    between atoms: _103  and  _105
REMARK   39  A    between atoms: _105  and  _106
REMARK   40  A    between atoms: _109  and  _111
REMARK   41  A    between atoms: _111  and  _112
REMARK   42  A    between atoms: _111  and  _114
REMARK   43  A    between atoms: _114  and  _115
REMARK   44  A    between atoms: _115  and  _116
REMARK   45  A    between atoms: _116  and  _117
REMARK   46  A    between atoms: _126  and  _128
REMARK   47  A    between atoms: _128  and  _129
REMARK   48  A    between atoms: _128  and  _131
REMARK   49  A    between atoms: _134  and  _136
REMARK   50  A    between atoms: _136  and  _137
REMARK   51  A    between atoms: _140  and  _142
REMARK   52  A    between atoms: _142  and  _143
REMARK   53  A    between atoms: _142  and  _145
REMARK   54  A    between atoms: _148  and  _150
REMARK   55  A    between atoms: _150  and  _151
REMARK   56  A    between atoms: _150  and  _153
REMARK   57  A    between atoms: _153  and  _154
REMARK   58  A    between atoms: _154  and  _155
REMARK   59  A    between atoms: _155  and  _156
REMARK   60  A    between atoms: _156  and  _157
REMARK   61  A    between atoms: _161  and  _163
REMARK   62  A    between atoms: _163  and  _164
REMARK   63  A    between atoms: _163  and  _166
REMARK   64  A    between atoms: _166  and  _167
REMARK   65  A    between atoms: _167  and  _168
REMARK   66  A    between atoms: _168  and  _169
REMARK   67  A    between atoms: _169  and  _170
REMARK   68  A    between atoms: _174  and  _176
REMARK   69  A    between atoms: _176  and  _177
REMARK   70  A    between atoms: _176  and  _179
REMARK   71  A    between atoms: _179  and  _180
REMARK   72  A    between atoms: _183  and  _185
REMARK   73  A    between atoms: _185  and  _186
REMARK   74  A    between atoms: _185  and  _188
REMARK   75  A    between atoms: _188  and  _189
REMARK   76  A    between atoms: _189  and  _190
REMARK   77  A    between atoms: _193  and  _195
REMARK   78  A    between atoms: _195  and  _196
REMARK   79  A    between atoms: _195  and  _198
REMARK   80  A    between atoms: _198  and  _199
REMARK   81  A    between atoms: _202  and  _204
REMARK   82  A    between atoms: _204  and  _205
REMARK   83  A    between atoms: _204  and  _207
REMARK   84  A    between atoms: _207  and  _208
REMARK   85  A    between atoms: _211  and  _213
REMARK   86  A    between atoms: _213  and  _214
REMARK   87  A    between atoms: _213  and  _216
REMARK   88  A    between atoms: _216  and  _217
REMARK   89  A    between atoms: _220  and  _222
REMARK   90  A    between atoms: _222  and  _223
REMARK   91  A    between atoms: _225  and  _227
REMARK   92  A    between atoms: _227  and  _228
REMARK   93  A    between atoms: _227  and  _230
REMARK   94  A    between atoms: _230  and  _231
REMARK   95  A    between atoms: _234  and  _236
REMARK   96  A    between atoms: _236  and  _237
REMARK   97  A    between atoms: _236  and  _239
REMARK   98  A    between atoms: _239  and  _240
REMARK   99  A    between atoms: _243  and  _245
REMARK  100  A    between atoms: _245  and  _246
REMARK  101  A    between atoms: _245  and  _248
REMARK  102  A    between atoms: _248  and  _249
REMARK  103  A    between atoms: _252  and  _254
REMARK  104  A    between atoms: _254  and  _255
REMARK  105  A    between atoms: _254  and  _257
REMARK  106  A    between atoms: _257  and  _258
REMARK  107  A    between atoms: _263  and  _264
REMARK  108  A    between atoms: _266  and  _268
REMARK  109  A    between atoms: _268  and  _269
REMARK  110  A    between atoms: _268  and  _271
REMARK  111  A    between atoms: _271  and  _272
REMARK  112  A    between atoms: _275  and  _277
REMARK  113  A    between atoms: _277  and  _278
REMARK  114  A    between atoms: _277  and  _280
REMARK  115  A    between atoms: _283  and  _285
REMARK  116  A    between atoms: _285  and  _286
REMARK  117  A    between atoms: _285  and  _288
REMARK  118  A    between atoms: _288  and  _289
REMARK  119  A    between atoms: _292  and  _294
REMARK  120  A    between atoms: _294  and  _295
REMARK  121  A    between atoms: _294  and  _297
REMARK  122  A    between atoms: _297  and  _298
REMARK  123  A    between atoms: _303  and  _305
REMARK  124  A    between atoms: _305  and  _306
REMARK  125  A    between atoms: _305  and  _308
REMARK  126  A    between atoms: _308  and  _309
REMARK  127  A    between atoms: _312  and  _314
REMARK  128  A    between atoms: _314  and  _315
REMARK  129  A    between atoms: _314  and  _317
REMARK  130  A    between atoms: _317  and  _318
REMARK  131  A    between atoms: _318  and  _319
REMARK  132  A    between atoms: _321  and  _323
REMARK  133  A    between atoms: _323  and  _324
REMARK  134  A    between atoms: _326  and  _328
REMARK  135  A    between atoms: _328  and  _329
REMARK  136  A    between atoms: _332  and  _334
REMARK  137  A    between atoms: _334  and  _335
REMARK  138  A    between atoms: _334  and  _337
REMARK  139  A    between atoms: _337  and  _338
REMARK  140  A    between atoms: _341  and  _343
REMARK  141  A    between atoms: _343  and  _344
REMARK  142  A    between atoms: _343  and  _346
REMARK  143  A    between atoms: _346  and  _347
REMARK  144  A    between atoms: _350  and  _352
REMARK  145  A    between atoms: _352  and  _353
REMARK  146  A    between atoms: _352  and  _355
REMARK  147  A    between atoms: _355  and  _356
REMARK  148  A    between atoms: _361  and  _363
REMARK  149  A    between atoms: _363  and  _364
REMARK  150  A    between atoms: _363  and  _366
REMARK  151  A    between atoms: _366  and  _367
REMARK  152  A    between atoms: _373  and  _374
REMARK  153  A    between atoms: _379  and  _381
REMARK  154  A    between atoms: _381  and  _382
REMARK  155  A    between atoms: _381  and  _384
REMARK  156  A    between atoms: _384  and  _385
REMARK  157  A    between atoms: _387  and  _389
REMARK  158  A    between atoms: _389  and  _390
REMARK  159  A    between atoms: _389  and  _392
REMARK  160  A    between atoms: _392  and  _393
REMARK  161  A    between atoms: _398  and  _400
REMARK  162  A    between atoms: _400  and  _401
REMARK  163  A    between atoms: _400  and  _403
REMARK  164  A    between atoms: _403  and  _404
REMARK  165  A    between atoms: _407  and  _409
REMARK  166  A    between atoms: _409  and  _410
REMARK  167  A    between atoms: _413  and  _415
REMARK  168  A    between atoms: _415  and  _416
REMARK  169  A    between atoms: _415  and  _418
REMARK  170  A    between atoms: _421  and  _423
REMARK  171  A    between atoms: _423  and  _424
REMARK  172  A    between atoms: _423  and  _426
REMARK  173  A    between atoms: _426  and  _427
REMARK  174  A    between atoms: _432  and  _434
REMARK  175  A    between atoms: _434  and  _435
REMARK  176  A    between atoms: _434  and  _437
REMARK  177  A    between atoms: _437  and  _438
REMARK  178  A    between atoms: _438  and  _439
REMARK  179  A    between atoms: _439  and  _440
REMARK  180  A    between atoms: _440  and  _441
REMARK  181  A    between atoms: _445  and  _447
REMARK  182  A    between atoms: _447  and  _448
REMARK  183  A    between atoms: _447  and  _450
REMARK  184  A    between atoms: _450  and  _451
REMARK  185  A    between atoms: _454  and  _456
REMARK  186  A    between atoms: _456  and  _457
REMARK  187  A    between atoms: _456  and  _459
REMARK  188  A    between atoms: _459  and  _460
REMARK  189  A    between atoms: _463  and  _465
REMARK  190  A    between atoms: _465  and  _466
REMARK  191  A    between atoms: _465  and  _468
REMARK  192  A    between atoms: _468  and  _469
REMARK  193  A    between atoms: _472  and  _474
REMARK  194  A    between atoms: _474  and  _475
REMARK  195  A    between atoms: _474  and  _477
REMARK  196  A    between atoms: _477  and  _478
REMARK  197  A    between atoms: _484  and  _486
REMARK  198  A    between atoms: _486  and  _487
REMARK  199  A    between atoms: _489  and  _491
REMARK  200  A    between atoms: _491  and  _492
REMARK  201  A    between atoms: _491  and  _494
REMARK  202  A    between atoms: _494  and  _495
REMARK                            x       y       z     vdW  Elec       q    Type
REMARK                         _______ _______ _______ _____ _____    ______ ____
ROOT
ATOM      1  O   HOH     1      18.570   9.192 -22.270  0.00  0.00    +0.000 OA
ENDROOT
TORSDOF 0
