REMARK  Name = ../refined-set-2016/1k27/1k27_pocket.pdb
REMARK  224 active torsions:
REMARK  status: ('A' for Active; 'I' for Inactive)
REMARK    1  A    between atoms: _1  and  _3
REMARK    2  A    between atoms: _3  and  _4
REMARK    3  A    between atoms: _6  and  _8
REMARK    4  A    between atoms: _8  and  _9
REMARK    5  A    between atoms: _8  and  _11
REMARK    6  A    between atoms: _11  and  _12
REMARK    7  A    between atoms: _15  and  _17
REMARK    8  A    between atoms: _17  and  _18
REMARK    9  A    between atoms: _20  and  _22
REMARK   10  A    between atoms: _22  and  _23
REMARK   11  A    between atoms: _22  and  _25
REMARK   12  A    between atoms: _25  and  _26
REMARK   13  A    between atoms: _26  and  _27
REMARK   14  A    between atoms: _27  and  _28
REMARK   15  A    between atoms: _37  and  _39
REMARK   16  A    between atoms: _39  and  _40
REMARK   17  A    between atoms: _39  and  _42
REMARK   18  A    between atoms: _42  and  _43
REMARK   19  A    between atoms: _48  and  _50
REMARK   20  A    between atoms: _50  and  _51
REMARK   21  A    between atoms: _50  and  _53
REMARK   22  A    between atoms: _53  and  _54
REMARK   23  A    between atoms: _59  and  _61
REMARK   24  A    between atoms: _61  and  _62
REMARK   25  A    between atoms: _61  and  _64
REMARK   26  A    between atoms: _64  and  _65
REMARK   27  A    between atoms: _68  and  _70
REMARK   28  A    between atoms: _70  and  _71
REMARK   29  A    between atoms: _70  and  _73
REMARK   30  A    between atoms: _73  and  _74
REMARK   31  A    between atoms: _74  and  _75
REMARK   32  A    between atoms: _78  and  _79
REMARK   33  A    between atoms: _84  and  _86
REMARK   34  A    between atoms: _86  and  _87
REMARK   35  A    between atoms: _86  and  _89
REMARK   36  A    between atoms: _89  and  _90
REMARK   37  A    between atoms: _92  and  _94
REMARK   38  A    between atoms: _94  and  _95
REMARK   39  A    between atoms: _94  and  _97
REMARK   40  A    between atoms: _100  and  _102
REMARK   41  A    between atoms: _102  and  _103
REMARK   42  A    between atoms: _102  and  _105
REMARK   43  A    between atoms: _105  and  _106
REMARK   44  A    between atoms: _111  and  _112
REMARK   45  A    between atoms: _114  and  _116
REMARK   46  A    between atoms: _116  and  _117
REMARK   47  A    between atoms: _116  and  _119
REMARK   48  A    between atoms: _119  and  _120
REMARK   49  A    between atoms: _123  and  _125
REMARK   50  A    between atoms: _125  and  _126
REMARK   51  A    between atoms: _129  and  _131
REMARK   52  A    between atoms: _131  and  _132
REMARK   53  A    between atoms: _131  and  _134
REMARK   54  A    between atoms: _136  and  _138
REMARK   55  A    between atoms: _138  and  _139
REMARK   56  A    between atoms: _141  and  _143
REMARK   57  A    between atoms: _143  and  _144
REMARK   58  A    between atoms: _143  and  _146
REMARK   59  A    between atoms: _146  and  _147
REMARK   60  A    between atoms: _149  and  _151
REMARK   61  A    between atoms: _151  and  _152
REMARK   62  A    between atoms: _151  and  _154
REMARK   63  A    between atoms: _154  and  _155
REMARK   64  A    between atoms: _158  and  _160
REMARK   65  A    between atoms: _160  and  _161
REMARK   66  A    between atoms: _160  and  _163
REMARK   67  A    between atoms: _163  and  _164
REMARK   68  A    between atoms: _164  and  _165
REMARK   69  A    between atoms: _165  and  _166
REMARK   70  A    between atoms: _175  and  _177
REMARK   71  A    between atoms: _177  and  _178
REMARK   72  A    between atoms: _177  and  _180
REMARK   73  A    between atoms: _180  and  _181
REMARK   74  A    between atoms: _181  and  _182
REMARK   75  A    between atoms: _184  and  _186
REMARK   76  A    between atoms: _186  and  _187
REMARK   77  A    between atoms: _186  and  _189
REMARK   78  A    between atoms: _192  and  _194
REMARK   79  A    between atoms: _194  and  _195
REMARK   80  A    between atoms: _194  and  _197
REMARK   81  A    between atoms: _197  and  _198
REMARK   82  A    between atoms: _201  and  _203
REMARK   83  A    between atoms: _203  and  _204
REMARK   84  A    between atoms: _203  and  _206
REMARK   85  A    between atoms: _206  and  _207
REMARK   86  A    between atoms: _210  and  _212
REMARK   87  A    between atoms: _212  and  _213
REMARK   88  A    between atoms: _212  and  _215
REMARK   89  A    between atoms: _215  and  _216
REMARK   90  A    between atoms: _216  and  _217
REMARK   91  A    between atoms: _220  and  _222
REMARK   92  A    between atoms: _222  and  _223
REMARK   93  A    between atoms: _226  and  _227
REMARK   94  A    between atoms: _232  and  _234
REMARK   95  A    between atoms: _234  and  _235
REMARK   96  A    between atoms: _234  and  _237
REMARK   97  A    between atoms: _237  and  _238
REMARK   98  A    between atoms: _238  and  _239
REMARK   99  A    between atoms: _239  and  _240
REMARK  100  A    between atoms: _249  and  _251
REMARK  101  A    between atoms: _251  and  _252
REMARK  102  A    between atoms: _251  and  _254
REMARK  103  A    between atoms: _254  and  _255
REMARK  104  A    between atoms: _261  and  _263
REMARK  105  A    between atoms: _263  and  _264
REMARK  106  A    between atoms: _263  and  _266
REMARK  107  A    between atoms: _266  and  _267
REMARK  108  A    between atoms: _269  and  _271
REMARK  109  A    between atoms: _271  and  _272
REMARK  110  A    between atoms: _271  and  _274
REMARK  111  A    between atoms: _274  and  _275
REMARK  112  A    between atoms: _277  and  _279
REMARK  113  A    between atoms: _279  and  _280
REMARK  114  A    between atoms: _279  and  _282
REMARK  115  A    between atoms: _282  and  _283
REMARK  116  A    between atoms: _289  and  _291
REMARK  117  A    between atoms: _291  and  _292
REMARK  118  A    between atoms: _291  and  _294
REMARK  119  A    between atoms: _297  and  _299
REMARK  120  A    between atoms: _299  and  _300
REMARK  121  A    between atoms: _299  and  _302
REMARK  122  A    between atoms: _302  and  _303
REMARK  123  A    between atoms: _306  and  _308
REMARK  124  A    between atoms: _308  and  _309
REMARK  125  A    between atoms: _308  and  _311
REMARK  126  A    between atoms: _311  and  _312
REMARK  127  A    between atoms: _317  and  _319
REMARK  128  A    between atoms: _319  and  _320
REMARK  129  A    between atoms: _319  and  _322
REMARK  130  A    between atoms: _322  and  _323
REMARK  131  A    between atoms: _323  and  _324
REMARK  132  A    between atoms: _326  and  _328
REMARK  133  A    between atoms: _328  and  _329
REMARK  134  A    between atoms: _328  and  _331
REMARK  135  A    between atoms: _331  and  _332
REMARK  136  A    between atoms: _335  and  _337
REMARK  137  A    between atoms: _337  and  _338
REMARK  138  A    between atoms: _337  and  _340
REMARK  139  A    between atoms: _340  and  _341
REMARK  140  A    between atoms: _344  and  _346
REMARK  141  A    between atoms: _346  and  _347
REMARK  142  A    between atoms: _346  and  _349
REMARK  143  A    between atoms: _352  and  _354
REMARK  144  A    between atoms: _354  and  _355
REMARK  145  A    between atoms: _354  and  _357
REMARK  146  A    between atoms: _357  and  _358
REMARK  147  A    between atoms: _358  and  _359
REMARK  148  A    between atoms: _361  and  _363
REMARK  149  A    between atoms: _363  and  _364
REMARK  150  A    between atoms: _367  and  _369
REMARK  151  A    between atoms: _369  and  _370
REMARK  152  A    between atoms: _369  and  _372
REMARK  153  A    between atoms: _372  and  _373
REMARK  154  A    between atoms: _376  and  _378
REMARK  155  A    between atoms: _378  and  _379
REMARK  156  A    between atoms: _378  and  _381
REMARK  157  A    between atoms: _381  and  _382
REMARK  158  A    between atoms: _385  and  _387
REMARK  159  A    between atoms: _387  and  _388
REMARK  160  A    between atoms: _387  and  _390
REMARK  161  A    between atoms: _390  and  _391
REMARK  162  A    between atoms: _396  and  _397
REMARK  163  A    between atoms: _399  and  _401
REMARK  164  A    between atoms: _401  and  _402
REMARK  165  A    between atoms: _401  and  _404
REMARK  166  A    between atoms: _404  and  _405
REMARK  167  A    between atoms: _408  and  _410
REMARK  168  A    between atoms: _410  and  _411
REMARK  169  A    between atoms: _410  and  _413
REMARK  170  A    between atoms: _415  and  _417
REMARK  171  A    between atoms: _417  and  _418
REMARK  172  A    between atoms: _417  and  _420
REMARK  173  A    between atoms: _420  and  _421
REMARK  174  A    between atoms: _431  and  _433
REMARK  175  A    between atoms: _433  and  _434
REMARK  176  A    between atoms: _437  and  _439
REMARK  177  A    between atoms: _439  and  _440
REMARK  178  A    between atoms: _439  and  _442
REMARK  179  A    between atoms: _445  and  _447
REMARK  180  A    between atoms: _447  and  _448
REMARK  181  A    between atoms: _447  and  _450
REMARK  182  A    between atoms: _450  and  _451
REMARK  183  A    between atoms: _453  and  _455
REMARK  184  A    between atoms: _455  and  _456
REMARK  185  A    between atoms: _455  and  _458
REMARK  186  A    between atoms: _461  and  _463
REMARK  187  A    between atoms: _463  and  _464
REMARK  188  A    between atoms: _463  and  _466
REMARK  189  A    between atoms: _466  and  _467
REMARK  190  A    between atoms: _470  and  _472
REMARK  191  A    between atoms: _472  and  _473
REMARK  192  A    between atoms: _472  and  _475
REMARK  193  A    between atoms: _475  and  _476
REMARK  194  A    between atoms: _476  and  _477
REMARK  195  A    between atoms: _477  and  _478
REMARK  196  A    between atoms: _487  and  _489
REMARK  197  A    between atoms: _489  and  _490
REMARK  198  A    between atoms: _489  and  _492
REMARK  199  A    between atoms: _495  and  _497
REMARK  200  A    between atoms: _497  and  _498
REMARK  201  A    between atoms: _497  and  _500
REMARK  202  A    between atoms: _500  and  _501
REMARK  203  A    between atoms: _504  and  _506
REMARK  204  A    between atoms: _506  and  _507
REMARK  205  A    between atoms: _506  and  _509
REMARK  206  A    between atoms: _509  and  _510
REMARK  207  A    between atoms: _513  and  _515
REMARK  208  A    between atoms: _515  and  _516
REMARK  209  A    between atoms: _515  and  _518
REMARK  210  A    between atoms: _521  and  _523
REMARK  211  A    between atoms: _523  and  _524
REMARK  212  A    between atoms: _523  and  _526
REMARK  213  A    between atoms: _528  and  _530
REMARK  214  A    between atoms: _530  and  _531
REMARK  215  A    between atoms: _530  and  _533
REMARK  216  A    between atoms: _533  and  _534
REMARK  217  A    between atoms: _539  and  _541
REMARK  218  A    between atoms: _541  and  _542
REMARK  219  A    between atoms: _541  and  _544
REMARK  220  A    between atoms: _544  and  _545
REMARK  221  A    between atoms: _547  and  _549
REMARK  222  A    between atoms: _549  and  _550
REMARK  223  A    between atoms: _549  and  _552
REMARK  224  A    between atoms: _552  and  _553
REMARK                            x       y       z     vdW  Elec       q    Type
REMARK                         _______ _______ _______ _____ _____    ______ ____
ROOT
ATOM      1  CA  THR A   2      64.391  11.352  33.321  0.00  0.00    +0.176 C 
ENDROOT
BRANCH   1   4
ATOM      2  C   GLY A   1      66.763  11.811  33.696  0.00  0.00    +0.240 C 
ATOM      3  O   GLY A   1      66.956  10.716  34.221  0.00  0.00    -0.274 OA
ATOM      4  N   THR A   2      65.575  12.202  33.238  0.00  0.00    -0.295 N 
ATOM      5  H   THR A   2      65.488  13.144  32.807  0.00  0.00    +0.150 HD
BRANCH   2   6
ATOM      6  CA  GLY A   1      67.899  12.805  33.538  0.00  0.00    +0.169 C 
BRANCH   6   7
ATOM      7  N   GLY A   1      69.218  12.209  33.659  0.00  0.00    -0.236 NA
ATOM      8  H   GLY A   1      69.684  11.816  32.816  0.00  0.00    +0.142 HD
ENDBRANCH   6   7
ENDBRANCH   2   6
ENDBRANCH   1   4
BRANCH   1   9
ATOM      9  C   THR A   2      64.647   9.968  32.727  0.00  0.00    +0.243 C 
ATOM     10  N   GLY A   3      64.503   8.940  33.558  0.00  0.00    -0.296 N 
ATOM     11  H   GLY A   3      64.238   9.117  34.548  0.00  0.00    +0.150 HD
ATOM     12  O   THR A   2      64.968   9.839  31.542  0.00  0.00    -0.273 OA
BRANCH  10  13
ATOM     13  CA  GLY A   3      64.710   7.572  33.108  0.00  0.00    +0.163 C 
BRANCH  13  14
ATOM     14  C   GLY A   3      66.072   7.288  32.500  0.00  0.00    +0.229 C 
ATOM     15  O   GLY A   3      66.240   6.299  31.784  0.00  0.00    -0.286 OA
ENDBRANCH  13  14
ENDBRANCH  10  13
ENDBRANCH   1   9
BRANCH   1  16
ATOM     16  CB  THR A   2      63.199  11.987  32.573  0.00  0.00    +0.137 C 
ATOM     17  CG2 THR A   2      61.957  11.118  32.715  0.00  0.00    +0.034 C 
BRANCH  16  18
ATOM     18  OG1 THR A   2      62.929  13.287  33.114  0.00  0.00    -0.382 OA
ATOM     19  HG1 THR A   2      62.164  13.691  32.632  0.00  0.00    +0.210 HD
ENDBRANCH  16  18
ENDBRANCH   1  16
TORSDOF 8
REMARK  Name = ../refined-set-2016/1k27/1k27_pocket.pdb
REMARK  224 active torsions:
REMARK  status: ('A' for Active; 'I' for Inactive)
REMARK    1  A    between atoms: _1  and  _3
REMARK    2  A    between atoms: _3  and  _4
REMARK    3  A    between atoms: _6  and  _8
REMARK    4  A    between atoms: _8  and  _9
REMARK    5  A    between atoms: _8  and  _11
REMARK    6  A    between atoms: _11  and  _12
REMARK    7  A    between atoms: _15  and  _17
REMARK    8  A    between atoms: _17  and  _18
REMARK    9  A    between atoms: _20  and  _22
REMARK   10  A    between atoms: _22  and  _23
REMARK   11  A    between atoms: _22  and  _25
REMARK   12  A    between atoms: _25  and  _26
REMARK   13  A    between atoms: _26  and  _27
REMARK   14  A    between atoms: _27  and  _28
REMARK   15  A    between atoms: _37  and  _39
REMARK   16  A    between atoms: _39  and  _40
REMARK   17  A    between atoms: _39  and  _42
REMARK   18  A    between atoms: _42  and  _43
REMARK   19  A    between atoms: _48  and  _50
REMARK   20  A    between atoms: _50  and  _51
REMARK   21  A    between atoms: _50  and  _53
REMARK   22  A    between atoms: _53  and  _54
REMARK   23  A    between atoms: _59  and  _61
REMARK   24  A    between atoms: _61  and  _62
REMARK   25  A    between atoms: _61  and  _64
REMARK   26  A    between atoms: _64  and  _65
REMARK   27  A    between atoms: _68  and  _70
REMARK   28  A    between atoms: _70  and  _71
REMARK   29  A    between atoms: _70  and  _73
REMARK   30  A    between atoms: _73  and  _74
REMARK   31  A    between atoms: _74  and  _75
REMARK   32  A    between atoms: _78  and  _79
REMARK   33  A    between atoms: _84  and  _86
REMARK   34  A    between atoms: _86  and  _87
REMARK   35  A    between atoms: _86  and  _89
REMARK   36  A    between atoms: _89  and  _90
REMARK   37  A    between atoms: _92  and  _94
REMARK   38  A    between atoms: _94  and  _95
REMARK   39  A    between atoms: _94  and  _97
REMARK   40  A    between atoms: _100  and  _102
REMARK   41  A    between atoms: _102  and  _103
REMARK   42  A    between atoms: _102  and  _105
REMARK   43  A    between atoms: _105  and  _106
REMARK   44  A    between atoms: _111  and  _112
REMARK   45  A    between atoms: _114  and  _116
REMARK   46  A    between atoms: _116  and  _117
REMARK   47  A    between atoms: _116  and  _119
REMARK   48  A    between atoms: _119  and  _120
REMARK   49  A    between atoms: _123  and  _125
REMARK   50  A    between atoms: _125  and  _126
REMARK   51  A    between atoms: _129  and  _131
REMARK   52  A    between atoms: _131  and  _132
REMARK   53  A    between atoms: _131  and  _134
REMARK   54  A    between atoms: _136  and  _138
REMARK   55  A    between atoms: _138  and  _139
REMARK   56  A    between atoms: _141  and  _143
REMARK   57  A    between atoms: _143  and  _144
REMARK   58  A    between atoms: _143  and  _146
REMARK   59  A    between atoms: _146  and  _147
REMARK   60  A    between atoms: _149  and  _151
REMARK   61  A    between atoms: _151  and  _152
REMARK   62  A    between atoms: _151  and  _154
REMARK   63  A    between atoms: _154  and  _155
REMARK   64  A    between atoms: _158  and  _160
REMARK   65  A    between atoms: _160  and  _161
REMARK   66  A    between atoms: _160  and  _163
REMARK   67  A    between atoms: _163  and  _164
REMARK   68  A    between atoms: _164  and  _165
REMARK   69  A    between atoms: _165  and  _166
REMARK   70  A    between atoms: _175  and  _177
REMARK   71  A    between atoms: _177  and  _178
REMARK   72  A    between atoms: _177  and  _180
REMARK   73  A    between atoms: _180  and  _181
REMARK   74  A    between atoms: _181  and  _182
REMARK   75  A    between atoms: _184  and  _186
REMARK   76  A    between atoms: _186  and  _187
REMARK   77  A    between atoms: _186  and  _189
REMARK   78  A    between atoms: _192  and  _194
REMARK   79  A    between atoms: _194  and  _195
REMARK   80  A    between atoms: _194  and  _197
REMARK   81  A    between atoms: _197  and  _198
REMARK   82  A    between atoms: _201  and  _203
REMARK   83  A    between atoms: _203  and  _204
REMARK   84  A    between atoms: _203  and  _206
REMARK   85  A    between atoms: _206  and  _207
REMARK   86  A    between atoms: _210  and  _212
REMARK   87  A    between atoms: _212  and  _213
REMARK   88  A    between atoms: _212  and  _215
REMARK   89  A    between atoms: _215  and  _216
REMARK   90  A    between atoms: _216  and  _217
REMARK   91  A    between atoms: _220  and  _222
REMARK   92  A    between atoms: _222  and  _223
REMARK   93  A    between atoms: _226  and  _227
REMARK   94  A    between atoms: _232  and  _234
REMARK   95  A    between atoms: _234  and  _235
REMARK   96  A    between atoms: _234  and  _237
REMARK   97  A    between atoms: _237  and  _238
REMARK   98  A    between atoms: _238  and  _239
REMARK   99  A    between atoms: _239  and  _240
REMARK  100  A    between atoms: _249  and  _251
REMARK  101  A    between atoms: _251  and  _252
REMARK  102  A    between atoms: _251  and  _254
REMARK  103  A    between atoms: _254  and  _255
REMARK  104  A    between atoms: _261  and  _263
REMARK  105  A    between atoms: _263  and  _264
REMARK  106  A    between atoms: _263  and  _266
REMARK  107  A    between atoms: _266  and  _267
REMARK  108  A    between atoms: _269  and  _271
REMARK  109  A    between atoms: _271  and  _272
REMARK  110  A    between atoms: _271  and  _274
REMARK  111  A    between atoms: _274  and  _275
REMARK  112  A    between atoms: _277  and  _279
REMARK  113  A    between atoms: _279  and  _280
REMARK  114  A    between atoms: _279  and  _282
REMARK  115  A    between atoms: _282  and  _283
REMARK  116  A    between atoms: _289  and  _291
REMARK  117  A    between atoms: _291  and  _292
REMARK  118  A    between atoms: _291  and  _294
REMARK  119  A    between atoms: _297  and  _299
REMARK  120  A    between atoms: _299  and  _300
REMARK  121  A    between atoms: _299  and  _302
REMARK  122  A    between atoms: _302  and  _303
REMARK  123  A    between atoms: _306  and  _308
REMARK  124  A    between atoms: _308  and  _309
REMARK  125  A    between atoms: _308  and  _311
REMARK  126  A    between atoms: _311  and  _312
REMARK  127  A    between atoms: _317  and  _319
REMARK  128  A    between atoms: _319  and  _320
REMARK  129  A    between atoms: _319  and  _322
REMARK  130  A    between atoms: _322  and  _323
REMARK  131  A    between atoms: _323  and  _324
REMARK  132  A    between atoms: _326  and  _328
REMARK  133  A    between atoms: _328  and  _329
REMARK  134  A    between atoms: _328  and  _331
REMARK  135  A    between atoms: _331  and  _332
REMARK  136  A    between atoms: _335  and  _337
REMARK  137  A    between atoms: _337  and  _338
REMARK  138  A    between atoms: _337  and  _340
REMARK  139  A    between atoms: _340  and  _341
REMARK  140  A    between atoms: _344  and  _346
REMARK  141  A    between atoms: _346  and  _347
REMARK  142  A    between atoms: _346  and  _349
REMARK  143  A    between atoms: _352  and  _354
REMARK  144  A    between atoms: _354  and  _355
REMARK  145  A    between atoms: _354  and  _357
REMARK  146  A    between atoms: _357  and  _358
REMARK  147  A    between atoms: _358  and  _359
REMARK  148  A    between atoms: _361  and  _363
REMARK  149  A    between atoms: _363  and  _364
REMARK  150  A    between atoms: _367  and  _369
REMARK  151  A    between atoms: _369  and  _370
REMARK  152  A    between atoms: _369  and  _372
REMARK  153  A    between atoms: _372  and  _373
REMARK  154  A    between atoms: _376  and  _378
REMARK  155  A    between atoms: _378  and  _379
REMARK  156  A    between atoms: _378  and  _381
REMARK  157  A    between atoms: _381  and  _382
REMARK  158  A    between atoms: _385  and  _387
REMARK  159  A    between atoms: _387  and  _388
REMARK  160  A    between atoms: _387  and  _390
REMARK  161  A    between atoms: _390  and  _391
REMARK  162  A    between atoms: _396  and  _397
REMARK  163  A    between atoms: _399  and  _401
REMARK  164  A    between atoms: _401  and  _402
REMARK  165  A    between atoms: _401  and  _404
REMARK  166  A    between atoms: _404  and  _405
REMARK  167  A    between atoms: _408  and  _410
REMARK  168  A    between atoms: _410  and  _411
REMARK  169  A    between atoms: _410  and  _413
REMARK  170  A    between atoms: _415  and  _417
REMARK  171  A    between atoms: _417  and  _418
REMARK  172  A    between atoms: _417  and  _420
REMARK  173  A    between atoms: _420  and  _421
REMARK  174  A    between atoms: _431  and  _433
REMARK  175  A    between atoms: _433  and  _434
REMARK  176  A    between atoms: _437  and  _439
REMARK  177  A    between atoms: _439  and  _440
REMARK  178  A    between atoms: _439  and  _442
REMARK  179  A    between atoms: _445  and  _447
REMARK  180  A    between atoms: _447  and  _448
REMARK  181  A    between atoms: _447  and  _450
REMARK  182  A    between atoms: _450  and  _451
REMARK  183  A    between atoms: _453  and  _455
REMARK  184  A    between atoms: _455  and  _456
REMARK  185  A    between atoms: _455  and  _458
REMARK  186  A    between atoms: _461  and  _463
REMARK  187  A    between atoms: _463  and  _464
REMARK  188  A    between atoms: _463  and  _466
REMARK  189  A    between atoms: _466  and  _467
REMARK  190  A    between atoms: _470  and  _472
REMARK  191  A    between atoms: _472  and  _473
REMARK  192  A    between atoms: _472  and  _475
REMARK  193  A    between atoms: _475  and  _476
REMARK  194  A    between atoms: _476  and  _477
REMARK  195  A    between atoms: _477  and  _478
REMARK  196  A    between atoms: _487  and  _489
REMARK  197  A    between atoms: _489  and  _490
REMARK  198  A    between atoms: _489  and  _492
REMARK  199  A    between atoms: _495  and  _497
REMARK  200  A    between atoms: _497  and  _498
REMARK  201  A    between atoms: _497  and  _500
REMARK  202  A    between atoms: _500  and  _501
REMARK  203  A    between atoms: _504  and  _506
REMARK  204  A    between atoms: _506  and  _507
REMARK  205  A    between atoms: _506  and  _509
REMARK  206  A    between atoms: _509  and  _510
REMARK  207  A    between atoms: _513  and  _515
REMARK  208  A    between atoms: _515  and  _516
REMARK  209  A    between atoms: _515  and  _518
REMARK  210  A    between atoms: _521  and  _523
REMARK  211  A    between atoms: _523  and  _524
REMARK  212  A    between atoms: _523  and  _526
REMARK  213  A    between atoms: _528  and  _530
REMARK  214  A    between atoms: _530  and  _531
REMARK  215  A    between atoms: _530  and  _533
REMARK  216  A    between atoms: _533  and  _534
REMARK  217  A    between atoms: _539  and  _541
REMARK  218  A    between atoms: _541  and  _542
REMARK  219  A    between atoms: _541  and  _544
REMARK  220  A    between atoms: _544  and  _545
REMARK  221  A    between atoms: _547  and  _549
REMARK  222  A    between atoms: _549  and  _550
REMARK  223  A    between atoms: _549  and  _552
REMARK  224  A    between atoms: _552  and  _553
REMARK                            x       y       z     vdW  Elec       q    Type
REMARK                         _______ _______ _______ _____ _____    ______ ____
ROOT
ATOM      1  CA  ARG A   1      69.011  15.382  38.412  0.00  0.00    +0.145 C 
ENDROOT
BRANCH   1   2
ATOM      2  C   ARG A   1      67.695  15.645  39.154  0.00  0.00    +0.238 C 
ATOM      3  O   ARG A   1      67.543  16.678  39.799  0.00  0.00    -0.274 OA
ATOM      4  N   HIS A   2      66.753  14.714  39.071  0.00  0.00    -0.298 N 
ATOM      5  H   HIS A   2      66.941  13.840  38.539  0.00  0.00    +0.150 HD
BRANCH   4   6
ATOM      6  CA  HIS A   2      65.455  14.899  39.716  0.00  0.00    +0.143 C 
BRANCH   6   7
ATOM      7  C   HIS A   2      65.296  14.091  40.990  0.00  0.00    +0.227 C 
ATOM      8  O   HIS A   2      64.188  13.958  41.513  0.00  0.00    -0.286 OA
ENDBRANCH   6   7
BRANCH   6   9
ATOM      9  CB  HIS A   2      64.350  14.523  38.731  0.00  0.00    +0.075 C 
BRANCH   9  10
ATOM     10  CG  HIS A   2      64.368  15.340  37.479  0.00  0.00    +0.082 A 
ATOM     11  ND1 HIS A   2      63.925  16.645  37.438  0.00  0.00    -0.227 NA
ATOM     12  CE1 HIS A   2      64.106  17.129  36.223  0.00  0.00    +0.199 A 
ATOM     13  NE2 HIS A   2      64.649  16.186  35.474  0.00  0.00    -0.221 NA
ATOM     14  CD2 HIS A   2      64.822  15.056  36.236  0.00  0.00    +0.115 A 
ENDBRANCH   9  10
ENDBRANCH   6   9
ENDBRANCH   4   6
ENDBRANCH   1   2
BRANCH   1  15
ATOM     15  N   ARG A   1      69.521  14.016  38.484  0.00  0.00    -0.238 NA
ATOM     16  H   ARG A   1      69.795  13.534  37.604  0.00  0.00    +0.142 HD
ENDBRANCH   1  15
BRANCH   1  17
ATOM     17  CB  ARG A   1      68.859  15.813  36.944  0.00  0.00    +0.030 C 
BRANCH  17  18
ATOM     18  CG  ARG A   1      68.406  17.259  36.764  0.00  0.00    +0.045 C 
BRANCH  18  19
ATOM     19  CD  ARG A   1      68.258  17.646  35.284  0.00  0.00    +0.174 C 
BRANCH  19  20
ATOM     20  NE  ARG A   1      69.528  17.574  34.557  0.00  0.00    -0.265 N 
ATOM     21  HE  ARG A   1      70.273  18.253  34.816  0.00  0.00    +0.259 HD
ATOM     22  CZ  ARG A   1      69.795  16.702  33.590  0.00  0.00    +0.342 C 
ATOM     23  NH2 ARG A   1      68.879  15.818  33.217  0.00  0.00    -0.292 N 
ATOM     24 HH21 ARG A   1      67.949  15.806  33.682  0.00  0.00    +0.255 HD
ATOM     25 HH22 ARG A   1      69.091  15.137  32.460  0.00  0.00    +0.255 HD
ATOM     26  NH1 ARG A   1      70.988  16.702  33.008  0.00  0.00    -0.292 N 
ATOM     27 HH11 ARG A   1      71.713  17.384  33.309  0.00  0.00    +0.255 HD
ATOM     28 HH12 ARG A   1      71.197  16.020  32.251  0.00  0.00    +0.255 HD
ENDBRANCH  19  20
ENDBRANCH  18  19
ENDBRANCH  17  18
ENDBRANCH   1  17
TORSDOF 10
REMARK  Name = ../refined-set-2016/1k27/1k27_pocket.pdb
REMARK  224 active torsions:
REMARK  status: ('A' for Active; 'I' for Inactive)
REMARK    1  A    between atoms: _1  and  _3
REMARK    2  A    between atoms: _3  and  _4
REMARK    3  A    between atoms: _6  and  _8
REMARK    4  A    between atoms: _8  and  _9
REMARK    5  A    between atoms: _8  and  _11
REMARK    6  A    between atoms: _11  and  _12
REMARK    7  A    between atoms: _15  and  _17
REMARK    8  A    between atoms: _17  and  _18
REMARK    9  A    between atoms: _20  and  _22
REMARK   10  A    between atoms: _22  and  _23
REMARK   11  A    between atoms: _22  and  _25
REMARK   12  A    between atoms: _25  and  _26
REMARK   13  A    between atoms: _26  and  _27
REMARK   14  A    between atoms: _27  and  _28
REMARK   15  A    between atoms: _37  and  _39
REMARK   16  A    between atoms: _39  and  _40
REMARK   17  A    between atoms: _39  and  _42
REMARK   18  A    between atoms: _42  and  _43
REMARK   19  A    between atoms: _48  and  _50
REMARK   20  A    between atoms: _50  and  _51
REMARK   21  A    between atoms: _50  and  _53
REMARK   22  A    between atoms: _53  and  _54
REMARK   23  A    between atoms: _59  and  _61
REMARK   24  A    between atoms: _61  and  _62
REMARK   25  A    between atoms: _61  and  _64
REMARK   26  A    between atoms: _64  and  _65
REMARK   27  A    between atoms: _68  and  _70
REMARK   28  A    between atoms: _70  and  _71
REMARK   29  A    between atoms: _70  and  _73
REMARK   30  A    between atoms: _73  and  _74
REMARK   31  A    between atoms: _74  and  _75
REMARK   32  A    between atoms: _78  and  _79
REMARK   33  A    between atoms: _84  and  _86
REMARK   34  A    between atoms: _86  and  _87
REMARK   35  A    between atoms: _86  and  _89
REMARK   36  A    between atoms: _89  and  _90
REMARK   37  A    between atoms: _92  and  _94
REMARK   38  A    between atoms: _94  and  _95
REMARK   39  A    between atoms: _94  and  _97
REMARK   40  A    between atoms: _100  and  _102
REMARK   41  A    between atoms: _102  and  _103
REMARK   42  A    between atoms: _102  and  _105
REMARK   43  A    between atoms: _105  and  _106
REMARK   44  A    between atoms: _111  and  _112
REMARK   45  A    between atoms: _114  and  _116
REMARK   46  A    between atoms: _116  and  _117
REMARK   47  A    between atoms: _116  and  _119
REMARK   48  A    between atoms: _119  and  _120
REMARK   49  A    between atoms: _123  and  _125
REMARK   50  A    between atoms: _125  and  _126
REMARK   51  A    between atoms: _129  and  _131
REMARK   52  A    between atoms: _131  and  _132
REMARK   53  A    between atoms: _131  and  _134
REMARK   54  A    between atoms: _136  and  _138
REMARK   55  A    between atoms: _138  and  _139
REMARK   56  A    between atoms: _141  and  _143
REMARK   57  A    between atoms: _143  and  _144
REMARK   58  A    between atoms: _143  and  _146
REMARK   59  A    between atoms: _146  and  _147
REMARK   60  A    between atoms: _149  and  _151
REMARK   61  A    between atoms: _151  and  _152
REMARK   62  A    between atoms: _151  and  _154
REMARK   63  A    between atoms: _154  and  _155
REMARK   64  A    between atoms: _158  and  _160
REMARK   65  A    between atoms: _160  and  _161
REMARK   66  A    between atoms: _160  and  _163
REMARK   67  A    between atoms: _163  and  _164
REMARK   68  A    between atoms: _164  and  _165
REMARK   69  A    between atoms: _165  and  _166
REMARK   70  A    between atoms: _175  and  _177
REMARK   71  A    between atoms: _177  and  _178
REMARK   72  A    between atoms: _177  and  _180
REMARK   73  A    between atoms: _180  and  _181
REMARK   74  A    between atoms: _181  and  _182
REMARK   75  A    between atoms: _184  and  _186
REMARK   76  A    between atoms: _186  and  _187
REMARK   77  A    between atoms: _186  and  _189
REMARK   78  A    between atoms: _192  and  _194
REMARK   79  A    between atoms: _194  and  _195
REMARK   80  A    between atoms: _194  and  _197
REMARK   81  A    between atoms: _197  and  _198
REMARK   82  A    between atoms: _201  and  _203
REMARK   83  A    between atoms: _203  and  _204
REMARK   84  A    between atoms: _203  and  _206
REMARK   85  A    between atoms: _206  and  _207
REMARK   86  A    between atoms: _210  and  _212
REMARK   87  A    between atoms: _212  and  _213
REMARK   88  A    between atoms: _212  and  _215
REMARK   89  A    between atoms: _215  and  _216
REMARK   90  A    between atoms: _216  and  _217
REMARK   91  A    between atoms: _220  and  _222
REMARK   92  A    between atoms: _222  and  _223
REMARK   93  A    between atoms: _226  and  _227
REMARK   94  A    between atoms: _232  and  _234
REMARK   95  A    between atoms: _234  and  _235
REMARK   96  A    between atoms: _234  and  _237
REMARK   97  A    between atoms: _237  and  _238
REMARK   98  A    between atoms: _238  and  _239
REMARK   99  A    between atoms: _239  and  _240
REMARK  100  A    between atoms: _249  and  _251
REMARK  101  A    between atoms: _251  and  _252
REMARK  102  A    between atoms: _251  and  _254
REMARK  103  A    between atoms: _254  and  _255
REMARK  104  A    between atoms: _261  and  _263
REMARK  105  A    between atoms: _263  and  _264
REMARK  106  A    between atoms: _263  and  _266
REMARK  107  A    between atoms: _266  and  _267
REMARK  108  A    between atoms: _269  and  _271
REMARK  109  A    between atoms: _271  and  _272
REMARK  110  A    between atoms: _271  and  _274
REMARK  111  A    between atoms: _274  and  _275
REMARK  112  A    between atoms: _277  and  _279
REMARK  113  A    between atoms: _279  and  _280
REMARK  114  A    between atoms: _279  and  _282
REMARK  115  A    between atoms: _282  and  _283
REMARK  116  A    between atoms: _289  and  _291
REMARK  117  A    between atoms: _291  and  _292
REMARK  118  A    between atoms: _291  and  _294
REMARK  119  A    between atoms: _297  and  _299
REMARK  120  A    between atoms: _299  and  _300
REMARK  121  A    between atoms: _299  and  _302
REMARK  122  A    between atoms: _302  and  _303
REMARK  123  A    between atoms: _306  and  _308
REMARK  124  A    between atoms: _308  and  _309
REMARK  125  A    between atoms: _308  and  _311
REMARK  126  A    between atoms: _311  and  _312
REMARK  127  A    between atoms: _317  and  _319
REMARK  128  A    between atoms: _319  and  _320
REMARK  129  A    between atoms: _319  and  _322
REMARK  130  A    between atoms: _322  and  _323
REMARK  131  A    between atoms: _323  and  _324
REMARK  132  A    between atoms: _326  and  _328
REMARK  133  A    between atoms: _328  and  _329
REMARK  134  A    between atoms: _328  and  _331
REMARK  135  A    between atoms: _331  and  _332
REMARK  136  A    between atoms: _335  and  _337
REMARK  137  A    between atoms: _337  and  _338
REMARK  138  A    between atoms: _337  and  _340
REMARK  139  A    between atoms: _340  and  _341
REMARK  140  A    between atoms: _344  and  _346
REMARK  141  A    between atoms: _346  and  _347
REMARK  142  A    between atoms: _346  and  _349
REMARK  143  A    between atoms: _352  and  _354
REMARK  144  A    between atoms: _354  and  _355
REMARK  145  A    between atoms: _354  and  _357
REMARK  146  A    between atoms: _357  and  _358
REMARK  147  A    between atoms: _358  and  _359
REMARK  148  A    between atoms: _361  and  _363
REMARK  149  A    between atoms: _363  and  _364
REMARK  150  A    between atoms: _367  and  _369
REMARK  151  A    between atoms: _369  and  _370
REMARK  152  A    between atoms: _369  and  _372
REMARK  153  A    between atoms: _372  and  _373
REMARK  154  A    between atoms: _376  and  _378
REMARK  155  A    between atoms: _378  and  _379
REMARK  156  A    between atoms: _378  and  _381
REMARK  157  A    between atoms: _381  and  _382
REMARK  158  A    between atoms: _385  and  _387
REMARK  159  A    between atoms: _387  and  _388
REMARK  160  A    between atoms: _387  and  _390
REMARK  161  A    between atoms: _390  and  _391
REMARK  162  A    between atoms: _396  and  _397
REMARK  163  A    between atoms: _399  and  _401
REMARK  164  A    between atoms: _401  and  _402
REMARK  165  A    between atoms: _401  and  _404
REMARK  166  A    between atoms: _404  and  _405
REMARK  167  A    between atoms: _408  and  _410
REMARK  168  A    between atoms: _410  and  _411
REMARK  169  A    between atoms: _410  and  _413
REMARK  170  A    between atoms: _415  and  _417
REMARK  171  A    between atoms: _417  and  _418
REMARK  172  A    between atoms: _417  and  _420
REMARK  173  A    between atoms: _420  and  _421
REMARK  174  A    between atoms: _431  and  _433
REMARK  175  A    between atoms: _433  and  _434
REMARK  176  A    between atoms: _437  and  _439
REMARK  177  A    between atoms: _439  and  _440
REMARK  178  A    between atoms: _439  and  _442
REMARK  179  A    between atoms: _445  and  _447
REMARK  180  A    between atoms: _447  and  _448
REMARK  181  A    between atoms: _447  and  _450
REMARK  182  A    between atoms: _450  and  _451
REMARK  183  A    between atoms: _453  and  _455
REMARK  184  A    between atoms: _455  and  _456
REMARK  185  A    between atoms: _455  and  _458
REMARK  186  A    between atoms: _461  and  _463
REMARK  187  A    between atoms: _463  and  _464
REMARK  188  A    between atoms: _463  and  _466
REMARK  189  A    between atoms: _466  and  _467
REMARK  190  A    between atoms: _470  and  _472
REMARK  191  A    between atoms: _472  and  _473
REMARK  192  A    between atoms: _472  and  _475
REMARK  193  A    between atoms: _475  and  _476
REMARK  194  A    between atoms: _476  and  _477
REMARK  195  A    between atoms: _477  and  _478
REMARK  196  A    between atoms: _487  and  _489
REMARK  197  A    between atoms: _489  and  _490
REMARK  198  A    between atoms: _489  and  _492
REMARK  199  A    between atoms: _495  and  _497
REMARK  200  A    between atoms: _497  and  _498
REMARK  201  A    between atoms: _497  and  _500
REMARK  202  A    between atoms: _500  and  _501
REMARK  203  A    between atoms: _504  and  _506
REMARK  204  A    between atoms: _506  and  _507
REMARK  205  A    between atoms: _506  and  _509
REMARK  206  A    between atoms: _509  and  _510
REMARK  207  A    between atoms: _513  and  _515
REMARK  208  A    between atoms: _515  and  _516
REMARK  209  A    between atoms: _515  and  _518
REMARK  210  A    between atoms: _521  and  _523
REMARK  211  A    between atoms: _523  and  _524
REMARK  212  A    between atoms: _523  and  _526
REMARK  213  A    between atoms: _528  and  _530
REMARK  214  A    between atoms: _530  and  _531
REMARK  215  A    between atoms: _530  and  _533
REMARK  216  A    between atoms: _533  and  _534
REMARK  217  A    between atoms: _539  and  _541
REMARK  218  A    between atoms: _541  and  _542
REMARK  219  A    between atoms: _541  and  _544
REMARK  220  A    between atoms: _544  and  _545
REMARK  221  A    between atoms: _547  and  _549
REMARK  222  A    between atoms: _549  and  _550
REMARK  223  A    between atoms: _549  and  _552
REMARK  224  A    between atoms: _552  and  _553
REMARK                            x       y       z     vdW  Elec       q    Type
REMARK                         _______ _______ _______ _____ _____    ______ ____
ROOT
ATOM      1  CB  HIS A   1      61.560  11.153  39.130  0.00  0.00    +0.072 C 
ENDROOT
BRANCH   1   2
ATOM      2  CG  HIS A   1      61.404  12.134  38.012  0.00  0.00    +0.082 A 
ATOM      3  CD2 HIS A   1      60.608  13.222  37.883  0.00  0.00    +0.115 A 
ATOM      4  NE2 HIS A   1      60.912  13.807  36.678  0.00  0.00    -0.221 NA
ATOM      5  CE1 HIS A   1      61.859  13.102  36.086  0.00  0.00    +0.199 A 
ATOM      6  ND1 HIS A   1      62.174  12.086  36.870  0.00  0.00    -0.227 NA
ENDBRANCH   1   2
BRANCH   1   7
ATOM      7  CA  HIS A   1      62.137  11.772  40.399  0.00  0.00    +0.139 C 
BRANCH   7   8
ATOM      8  N   HIS A   1      62.725  10.743  41.251  0.00  0.00    -0.239 NA
ATOM      9  H   HIS A   1      63.761  10.671  41.303  0.00  0.00    +0.142 HD
ENDBRANCH   7   8
BRANCH   7  10
ATOM     10  C   HIS A   1      61.044  12.541  41.122  0.00  0.00    +0.224 C 
ATOM     11  O   HIS A   1      59.874  12.503  40.735  0.00  0.00    -0.287 OA
ENDBRANCH   7  10
ENDBRANCH   1   7
TORSDOF 4
REMARK  Name = ../refined-set-2016/1k27/1k27_pocket.pdb
REMARK  224 active torsions:
REMARK  status: ('A' for Active; 'I' for Inactive)
REMARK    1  A    between atoms: _1  and  _3
REMARK    2  A    between atoms: _3  and  _4
REMARK    3  A    between atoms: _6  and  _8
REMARK    4  A    between atoms: _8  and  _9
REMARK    5  A    between atoms: _8  and  _11
REMARK    6  A    between atoms: _11  and  _12
REMARK    7  A    between atoms: _15  and  _17
REMARK    8  A    between atoms: _17  and  _18
REMARK    9  A    between atoms: _20  and  _22
REMARK   10  A    between atoms: _22  and  _23
REMARK   11  A    between atoms: _22  and  _25
REMARK   12  A    between atoms: _25  and  _26
REMARK   13  A    between atoms: _26  and  _27
REMARK   14  A    between atoms: _27  and  _28
REMARK   15  A    between atoms: _37  and  _39
REMARK   16  A    between atoms: _39  and  _40
REMARK   17  A    between atoms: _39  and  _42
REMARK   18  A    between atoms: _42  and  _43
REMARK   19  A    between atoms: _48  and  _50
REMARK   20  A    between atoms: _50  and  _51
REMARK   21  A    between atoms: _50  and  _53
REMARK   22  A    between atoms: _53  and  _54
REMARK   23  A    between atoms: _59  and  _61
REMARK   24  A    between atoms: _61  and  _62
REMARK   25  A    between atoms: _61  and  _64
REMARK   26  A    between atoms: _64  and  _65
REMARK   27  A    between atoms: _68  and  _70
REMARK   28  A    between atoms: _70  and  _71
REMARK   29  A    between atoms: _70  and  _73
REMARK   30  A    between atoms: _73  and  _74
REMARK   31  A    between atoms: _74  and  _75
REMARK   32  A    between atoms: _78  and  _79
REMARK   33  A    between atoms: _84  and  _86
REMARK   34  A    between atoms: _86  and  _87
REMARK   35  A    between atoms: _86  and  _89
REMARK   36  A    between atoms: _89  and  _90
REMARK   37  A    between atoms: _92  and  _94
REMARK   38  A    between atoms: _94  and  _95
REMARK   39  A    between atoms: _94  and  _97
REMARK   40  A    between atoms: _100  and  _102
REMARK   41  A    between atoms: _102  and  _103
REMARK   42  A    between atoms: _102  and  _105
REMARK   43  A    between atoms: _105  and  _106
REMARK   44  A    between atoms: _111  and  _112
REMARK   45  A    between atoms: _114  and  _116
REMARK   46  A    between atoms: _116  and  _117
REMARK   47  A    between atoms: _116  and  _119
REMARK   48  A    between atoms: _119  and  _120
REMARK   49  A    between atoms: _123  and  _125
REMARK   50  A    between atoms: _125  and  _126
REMARK   51  A    between atoms: _129  and  _131
REMARK   52  A    between atoms: _131  and  _132
REMARK   53  A    between atoms: _131  and  _134
REMARK   54  A    between atoms: _136  and  _138
REMARK   55  A    between atoms: _138  and  _139
REMARK   56  A    between atoms: _141  and  _143
REMARK   57  A    between atoms: _143  and  _144
REMARK   58  A    between atoms: _143  and  _146
REMARK   59  A    between atoms: _146  and  _147
REMARK   60  A    between atoms: _149  and  _151
REMARK   61  A    between atoms: _151  and  _152
REMARK   62  A    between atoms: _151  and  _154
REMARK   63  A    between atoms: _154  and  _155
REMARK   64  A    between atoms: _158  and  _160
REMARK   65  A    between atoms: _160  and  _161
REMARK   66  A    between atoms: _160  and  _163
REMARK   67  A    between atoms: _163  and  _164
REMARK   68  A    between atoms: _164  and  _165
REMARK   69  A    between atoms: _165  and  _166
REMARK   70  A    between atoms: _175  and  _177
REMARK   71  A    between atoms: _177  and  _178
REMARK   72  A    between atoms: _177  and  _180
REMARK   73  A    between atoms: _180  and  _181
REMARK   74  A    between atoms: _181  and  _182
REMARK   75  A    between atoms: _184  and  _186
REMARK   76  A    between atoms: _186  and  _187
REMARK   77  A    between atoms: _186  and  _189
REMARK   78  A    between atoms: _192  and  _194
REMARK   79  A    between atoms: _194  and  _195
REMARK   80  A    between atoms: _194  and  _197
REMARK   81  A    between atoms: _197  and  _198
REMARK   82  A    between atoms: _201  and  _203
REMARK   83  A    between atoms: _203  and  _204
REMARK   84  A    between atoms: _203  and  _206
REMARK   85  A    between atoms: _206  and  _207
REMARK   86  A    between atoms: _210  and  _212
REMARK   87  A    between atoms: _212  and  _213
REMARK   88  A    between atoms: _212  and  _215
REMARK   89  A    between atoms: _215  and  _216
REMARK   90  A    between atoms: _216  and  _217
REMARK   91  A    between atoms: _220  and  _222
REMARK   92  A    between atoms: _222  and  _223
REMARK   93  A    between atoms: _226  and  _227
REMARK   94  A    between atoms: _232  and  _234
REMARK   95  A    between atoms: _234  and  _235
REMARK   96  A    between atoms: _234  and  _237
REMARK   97  A    between atoms: _237  and  _238
REMARK   98  A    between atoms: _238  and  _239
REMARK   99  A    between atoms: _239  and  _240
REMARK  100  A    between atoms: _249  and  _251
REMARK  101  A    between atoms: _251  and  _252
REMARK  102  A    between atoms: _251  and  _254
REMARK  103  A    between atoms: _254  and  _255
REMARK  104  A    between atoms: _261  and  _263
REMARK  105  A    between atoms: _263  and  _264
REMARK  106  A    between atoms: _263  and  _266
REMARK  107  A    between atoms: _266  and  _267
REMARK  108  A    between atoms: _269  and  _271
REMARK  109  A    between atoms: _271  and  _272
REMARK  110  A    between atoms: _271  and  _274
REMARK  111  A    between atoms: _274  and  _275
REMARK  112  A    between atoms: _277  and  _279
REMARK  113  A    between atoms: _279  and  _280
REMARK  114  A    between atoms: _279  and  _282
REMARK  115  A    between atoms: _282  and  _283
REMARK  116  A    between atoms: _289  and  _291
REMARK  117  A    between atoms: _291  and  _292
REMARK  118  A    between atoms: _291  and  _294
REMARK  119  A    between atoms: _297  and  _299
REMARK  120  A    between atoms: _299  and  _300
REMARK  121  A    between atoms: _299  and  _302
REMARK  122  A    between atoms: _302  and  _303
REMARK  123  A    between atoms: _306  and  _308
REMARK  124  A    between atoms: _308  and  _309
REMARK  125  A    between atoms: _308  and  _311
REMARK  126  A    between atoms: _311  and  _312
REMARK  127  A    between atoms: _317  and  _319
REMARK  128  A    between atoms: _319  and  _320
REMARK  129  A    between atoms: _319  and  _322
REMARK  130  A    between atoms: _322  and  _323
REMARK  131  A    between atoms: _323  and  _324
REMARK  132  A    between atoms: _326  and  _328
REMARK  133  A    between atoms: _328  and  _329
REMARK  134  A    between atoms: _328  and  _331
REMARK  135  A    between atoms: _331  and  _332
REMARK  136  A    between atoms: _335  and  _337
REMARK  137  A    between atoms: _337  and  _338
REMARK  138  A    between atoms: _337  and  _340
REMARK  139  A    between atoms: _340  and  _341
REMARK  140  A    between atoms: _344  and  _346
REMARK  141  A    between atoms: _346  and  _347
REMARK  142  A    between atoms: _346  and  _349
REMARK  143  A    between atoms: _352  and  _354
REMARK  144  A    between atoms: _354  and  _355
REMARK  145  A    between atoms: _354  and  _357
REMARK  146  A    between atoms: _357  and  _358
REMARK  147  A    between atoms: _358  and  _359
REMARK  148  A    between atoms: _361  and  _363
REMARK  149  A    between atoms: _363  and  _364
REMARK  150  A    between atoms: _367  and  _369
REMARK  151  A    between atoms: _369  and  _370
REMARK  152  A    between atoms: _369  and  _372
REMARK  153  A    between atoms: _372  and  _373
REMARK  154  A    between atoms: _376  and  _378
REMARK  155  A    between atoms: _378  and  _379
REMARK  156  A    between atoms: _378  and  _381
REMARK  157  A    between atoms: _381  and  _382
REMARK  158  A    between atoms: _385  and  _387
REMARK  159  A    between atoms: _387  and  _388
REMARK  160  A    between atoms: _387  and  _390
REMARK  161  A    between atoms: _390  and  _391
REMARK  162  A    between atoms: _396  and  _397
REMARK  163  A    between atoms: _399  and  _401
REMARK  164  A    between atoms: _401  and  _402
REMARK  165  A    between atoms: _401  and  _404
REMARK  166  A    between atoms: _404  and  _405
REMARK  167  A    between atoms: _408  and  _410
REMARK  168  A    between atoms: _410  and  _411
REMARK  169  A    between atoms: _410  and  _413
REMARK  170  A    between atoms: _415  and  _417
REMARK  171  A    between atoms: _417  and  _418
REMARK  172  A    between atoms: _417  and  _420
REMARK  173  A    between atoms: _420  and  _421
REMARK  174  A    between atoms: _431  and  _433
REMARK  175  A    between atoms: _433  and  _434
REMARK  176  A    between atoms: _437  and  _439
REMARK  177  A    between atoms: _439  and  _440
REMARK  178  A    between atoms: _439  and  _442
REMARK  179  A    between atoms: _445  and  _447
REMARK  180  A    between atoms: _447  and  _448
REMARK  181  A    between atoms: _447  and  _450
REMARK  182  A    between atoms: _450  and  _451
REMARK  183  A    between atoms: _453  and  _455
REMARK  184  A    between atoms: _455  and  _456
REMARK  185  A    between atoms: _455  and  _458
REMARK  186  A    between atoms: _461  and  _463
REMARK  187  A    between atoms: _463  and  _464
REMARK  188  A    between atoms: _463  and  _466
REMARK  189  A    between atoms: _466  and  _467
REMARK  190  A    between atoms: _470  and  _472
REMARK  191  A    between atoms: _472  and  _473
REMARK  192  A    between atoms: _472  and  _475
REMARK  193  A    between atoms: _475  and  _476
REMARK  194  A    between atoms: _476  and  _477
REMARK  195  A    between atoms: _477  and  _478
REMARK  196  A    between atoms: _487  and  _489
REMARK  197  A    between atoms: _489  and  _490
REMARK  198  A    between atoms: _489  and  _492
REMARK  199  A    between atoms: _495  and  _497
REMARK  200  A    between atoms: _497  and  _498
REMARK  201  A    between atoms: _497  and  _500
REMARK  202  A    between atoms: _500  and  _501
REMARK  203  A    between atoms: _504  and  _506
REMARK  204  A    between atoms: _506  and  _507
REMARK  205  A    between atoms: _506  and  _509
REMARK  206  A    between atoms: _509  and  _510
REMARK  207  A    between atoms: _513  and  _515
REMARK  208  A    between atoms: _515  and  _516
REMARK  209  A    between atoms: _515  and  _518
REMARK  210  A    between atoms: _521  and  _523
REMARK  211  A    between atoms: _523  and  _524
REMARK  212  A    between atoms: _523  and  _526
REMARK  213  A    between atoms: _528  and  _530
REMARK  214  A    between atoms: _530  and  _531
REMARK  215  A    between atoms: _530  and  _533
REMARK  216  A    between atoms: _533  and  _534
REMARK  217  A    between atoms: _539  and  _541
REMARK  218  A    between atoms: _541  and  _542
REMARK  219  A    between atoms: _541  and  _544
REMARK  220  A    between atoms: _544  and  _545
REMARK  221  A    between atoms: _547  and  _549
REMARK  222  A    between atoms: _549  and  _550
REMARK  223  A    between atoms: _549  and  _552
REMARK  224  A    between atoms: _552  and  _553
REMARK                            x       y       z     vdW  Elec       q    Type
REMARK                         _______ _______ _______ _____ _____    ______ ____
ROOT
ATOM      1  C   MET A   2      61.601  20.168  38.547  0.00  0.00    +0.244 C 
ATOM      2  O   MET A   2      62.398  20.697  39.324  0.00  0.00    -0.273 OA
ATOM      3  N   PRO A   3      61.712  20.301  37.216  0.00  0.00    -0.272 N 
ATOM      4  CA  PRO A   3      62.795  21.072  36.598  0.00  0.00    +0.152 C 
ATOM      5  CB  PRO A   3      62.365  21.161  35.133  0.00  0.00    +0.031 C 
ATOM      6  CG  PRO A   3      61.639  19.873  34.922  0.00  0.00    +0.024 C 
ATOM      7  CD  PRO A   3      60.810  19.746  36.189  0.00  0.00    +0.094 C 
ENDROOT
BRANCH   4   8
ATOM      8  C   PRO A   3      63.025  22.449  37.217  0.00  0.00    +0.241 C 
ATOM      9  O   PRO A   3      64.164  22.832  37.475  0.00  0.00    -0.273 OA
ATOM     10  N   SER A   4      61.941  23.183  37.453  0.00  0.00    -0.296 N 
ATOM     11  H   SER A   4      61.007  22.789  37.222  0.00  0.00    +0.150 HD
BRANCH  10  12
ATOM     12  CA  SER A   4      62.021  24.527  38.027  0.00  0.00    +0.166 C 
BRANCH  12  13
ATOM     13  C   SER A   4      62.679  24.563  39.398  0.00  0.00    +0.229 C 
ATOM     14  O   SER A   4      63.273  25.573  39.781  0.00  0.00    -0.286 OA
ENDBRANCH  12  13
BRANCH  12  15
ATOM     15  CB  SER A   4      60.621  25.145  38.158  0.00  0.00    +0.165 C 
BRANCH  15  16
ATOM     16  OG  SER A   4      60.021  25.371  36.897  0.00  0.00    -0.380 OA
ATOM     17  H   SER A   4      59.936  24.511  36.414  0.00  0.00    +0.211 HD
ENDBRANCH  15  16
ENDBRANCH  12  15
ENDBRANCH  10  12
ENDBRANCH   4   8
BRANCH   1  18
ATOM     18  CA  MET A   2      60.435  19.334  39.077  0.00  0.00    +0.150 C 
BRANCH  18  20
ATOM     19  C   ILE A   1      61.698  17.836  40.510  0.00  0.00    +0.238 C 
ATOM     20  N   MET A   2      60.792  18.805  40.391  0.00  0.00    -0.297 N 
ATOM     21  H   MET A   2      60.334  19.189  41.242  0.00  0.00    +0.150 HD
ATOM     22  O   ILE A   1      62.272  17.339  39.541  0.00  0.00    -0.274 OA
BRANCH  19  23
ATOM     23  CA  ILE A   1      62.014  17.351  41.921  0.00  0.00    +0.145 C 
BRANCH  23  24
ATOM     24  N   ILE A   1      61.709  15.933  42.079  0.00  0.00    -0.238 NA
ATOM     25  H   ILE A   1      62.282  15.228  41.574  0.00  0.00    +0.142 HD
ENDBRANCH  23  24
BRANCH  23  26
ATOM     26  CB  ILE A   1      63.506  17.613  42.219  0.00  0.00    +0.025 C 
ATOM     27  CG2 ILE A   1      63.762  19.109  42.340  0.00  0.00    +0.002 C 
BRANCH  26  28
ATOM     28  CG1 ILE A   1      63.905  16.904  43.519  0.00  0.00    +0.002 C 
ATOM     29  CD1 ILE A   1      65.407  16.880  43.784  0.00  0.00    +0.000 C 
ENDBRANCH  26  28
ENDBRANCH  23  26
ENDBRANCH  19  23
ENDBRANCH  18  20
BRANCH  18  30
ATOM     30  CB  MET A   2      59.164  20.189  39.151  0.00  0.00    +0.041 C 
BRANCH  30  31
ATOM     31  CG  MET A   2      59.359  21.603  39.679  0.00  0.00    +0.060 C 
BRANCH  31  32
ATOM     32  SD  MET A   2      57.893  22.641  39.387  0.00  0.00    -0.139 S 
ATOM     33  CE  MET A   2      57.180  22.657  41.019  0.00  0.00    +0.069 C 
ENDBRANCH  31  32
ENDBRANCH  30  31
ENDBRANCH  18  30
ENDBRANCH   1  18
TORSDOF 14
REMARK  Name = ../refined-set-2016/1k27/1k27_pocket.pdb
REMARK  224 active torsions:
REMARK  status: ('A' for Active; 'I' for Inactive)
REMARK    1  A    between atoms: _1  and  _3
REMARK    2  A    between atoms: _3  and  _4
REMARK    3  A    between atoms: _6  and  _8
REMARK    4  A    between atoms: _8  and  _9
REMARK    5  A    between atoms: _8  and  _11
REMARK    6  A    between atoms: _11  and  _12
REMARK    7  A    between atoms: _15  and  _17
REMARK    8  A    between atoms: _17  and  _18
REMARK    9  A    between atoms: _20  and  _22
REMARK   10  A    between atoms: _22  and  _23
REMARK   11  A    between atoms: _22  and  _25
REMARK   12  A    between atoms: _25  and  _26
REMARK   13  A    between atoms: _26  and  _27
REMARK   14  A    between atoms: _27  and  _28
REMARK   15  A    between atoms: _37  and  _39
REMARK   16  A    between atoms: _39  and  _40
REMARK   17  A    between atoms: _39  and  _42
REMARK   18  A    between atoms: _42  and  _43
REMARK   19  A    between atoms: _48  and  _50
REMARK   20  A    between atoms: _50  and  _51
REMARK   21  A    between atoms: _50  and  _53
REMARK   22  A    between atoms: _53  and  _54
REMARK   23  A    between atoms: _59  and  _61
REMARK   24  A    between atoms: _61  and  _62
REMARK   25  A    between atoms: _61  and  _64
REMARK   26  A    between atoms: _64  and  _65
REMARK   27  A    between atoms: _68  and  _70
REMARK   28  A    between atoms: _70  and  _71
REMARK   29  A    between atoms: _70  and  _73
REMARK   30  A    between atoms: _73  and  _74
REMARK   31  A    between atoms: _74  and  _75
REMARK   32  A    between atoms: _78  and  _79
REMARK   33  A    between atoms: _84  and  _86
REMARK   34  A    between atoms: _86  and  _87
REMARK   35  A    between atoms: _86  and  _89
REMARK   36  A    between atoms: _89  and  _90
REMARK   37  A    between atoms: _92  and  _94
REMARK   38  A    between atoms: _94  and  _95
REMARK   39  A    between atoms: _94  and  _97
REMARK   40  A    between atoms: _100  and  _102
REMARK   41  A    between atoms: _102  and  _103
REMARK   42  A    between atoms: _102  and  _105
REMARK   43  A    between atoms: _105  and  _106
REMARK   44  A    between atoms: _111  and  _112
REMARK   45  A    between atoms: _114  and  _116
REMARK   46  A    between atoms: _116  and  _117
REMARK   47  A    between atoms: _116  and  _119
REMARK   48  A    between atoms: _119  and  _120
REMARK   49  A    between atoms: _123  and  _125
REMARK   50  A    between atoms: _125  and  _126
REMARK   51  A    between atoms: _129  and  _131
REMARK   52  A    between atoms: _131  and  _132
REMARK   53  A    between atoms: _131  and  _134
REMARK   54  A    between atoms: _136  and  _138
REMARK   55  A    between atoms: _138  and  _139
REMARK   56  A    between atoms: _141  and  _143
REMARK   57  A    between atoms: _143  and  _144
REMARK   58  A    between atoms: _143  and  _146
REMARK   59  A    between atoms: _146  and  _147
REMARK   60  A    between atoms: _149  and  _151
REMARK   61  A    between atoms: _151  and  _152
REMARK   62  A    between atoms: _151  and  _154
REMARK   63  A    between atoms: _154  and  _155
REMARK   64  A    between atoms: _158  and  _160
REMARK   65  A    between atoms: _160  and  _161
REMARK   66  A    between atoms: _160  and  _163
REMARK   67  A    between atoms: _163  and  _164
REMARK   68  A    between atoms: _164  and  _165
REMARK   69  A    between atoms: _165  and  _166
REMARK   70  A    between atoms: _175  and  _177
REMARK   71  A    between atoms: _177  and  _178
REMARK   72  A    between atoms: _177  and  _180
REMARK   73  A    between atoms: _180  and  _181
REMARK   74  A    between atoms: _181  and  _182
REMARK   75  A    between atoms: _184  and  _186
REMARK   76  A    between atoms: _186  and  _187
REMARK   77  A    between atoms: _186  and  _189
REMARK   78  A    between atoms: _192  and  _194
REMARK   79  A    between atoms: _194  and  _195
REMARK   80  A    between atoms: _194  and  _197
REMARK   81  A    between atoms: _197  and  _198
REMARK   82  A    between atoms: _201  and  _203
REMARK   83  A    between atoms: _203  and  _204
REMARK   84  A    between atoms: _203  and  _206
REMARK   85  A    between atoms: _206  and  _207
REMARK   86  A    between atoms: _210  and  _212
REMARK   87  A    between atoms: _212  and  _213
REMARK   88  A    between atoms: _212  and  _215
REMARK   89  A    between atoms: _215  and  _216
REMARK   90  A    between atoms: _216  and  _217
REMARK   91  A    between atoms: _220  and  _222
REMARK   92  A    between atoms: _222  and  _223
REMARK   93  A    between atoms: _226  and  _227
REMARK   94  A    between atoms: _232  and  _234
REMARK   95  A    between atoms: _234  and  _235
REMARK   96  A    between atoms: _234  and  _237
REMARK   97  A    between atoms: _237  and  _238
REMARK   98  A    between atoms: _238  and  _239
REMARK   99  A    between atoms: _239  and  _240
REMARK  100  A    between atoms: _249  and  _251
REMARK  101  A    between atoms: _251  and  _252
REMARK  102  A    between atoms: _251  and  _254
REMARK  103  A    between atoms: _254  and  _255
REMARK  104  A    between atoms: _261  and  _263
REMARK  105  A    between atoms: _263  and  _264
REMARK  106  A    between atoms: _263  and  _266
REMARK  107  A    between atoms: _266  and  _267
REMARK  108  A    between atoms: _269  and  _271
REMARK  109  A    between atoms: _271  and  _272
REMARK  110  A    between atoms: _271  and  _274
REMARK  111  A    between atoms: _274  and  _275
REMARK  112  A    between atoms: _277  and  _279
REMARK  113  A    between atoms: _279  and  _280
REMARK  114  A    between atoms: _279  and  _282
REMARK  115  A    between atoms: _282  and  _283
REMARK  116  A    between atoms: _289  and  _291
REMARK  117  A    between atoms: _291  and  _292
REMARK  118  A    between atoms: _291  and  _294
REMARK  119  A    between atoms: _297  and  _299
REMARK  120  A    between atoms: _299  and  _300
REMARK  121  A    between atoms: _299  and  _302
REMARK  122  A    between atoms: _302  and  _303
REMARK  123  A    between atoms: _306  and  _308
REMARK  124  A    between atoms: _308  and  _309
REMARK  125  A    between atoms: _308  and  _311
REMARK  126  A    between atoms: _311  and  _312
REMARK  127  A    between atoms: _317  and  _319
REMARK  128  A    between atoms: _319  and  _320
REMARK  129  A    between atoms: _319  and  _322
REMARK  130  A    between atoms: _322  and  _323
REMARK  131  A    between atoms: _323  and  _324
REMARK  132  A    between atoms: _326  and  _328
REMARK  133  A    between atoms: _328  and  _329
REMARK  134  A    between atoms: _328  and  _331
REMARK  135  A    between atoms: _331  and  _332
REMARK  136  A    between atoms: _335  and  _337
REMARK  137  A    between atoms: _337  and  _338
REMARK  138  A    between atoms: _337  and  _340
REMARK  139  A    between atoms: _340  and  _341
REMARK  140  A    between atoms: _344  and  _346
REMARK  141  A    between atoms: _346  and  _347
REMARK  142  A    between atoms: _346  and  _349
REMARK  143  A    between atoms: _352  and  _354
REMARK  144  A    between atoms: _354  and  _355
REMARK  145  A    between atoms: _354  and  _357
REMARK  146  A    between atoms: _357  and  _358
REMARK  147  A    between atoms: _358  and  _359
REMARK  148  A    between atoms: _361  and  _363
REMARK  149  A    between atoms: _363  and  _364
REMARK  150  A    between atoms: _367  and  _369
REMARK  151  A    between atoms: _369  and  _370
REMARK  152  A    between atoms: _369  and  _372
REMARK  153  A    between atoms: _372  and  _373
REMARK  154  A    between atoms: _376  and  _378
REMARK  155  A    between atoms: _378  and  _379
REMARK  156  A    between atoms: _378  and  _381
REMARK  157  A    between atoms: _381  and  _382
REMARK  158  A    between atoms: _385  and  _387
REMARK  159  A    between atoms: _387  and  _388
REMARK  160  A    between atoms: _387  and  _390
REMARK  161  A    between atoms: _390  and  _391
REMARK  162  A    between atoms: _396  and  _397
REMARK  163  A    between atoms: _399  and  _401
REMARK  164  A    between atoms: _401  and  _402
REMARK  165  A    between atoms: _401  and  _404
REMARK  166  A    between atoms: _404  and  _405
REMARK  167  A    between atoms: _408  and  _410
REMARK  168  A    between atoms: _410  and  _411
REMARK  169  A    between atoms: _410  and  _413
REMARK  170  A    between atoms: _415  and  _417
REMARK  171  A    between atoms: _417  and  _418
REMARK  172  A    between atoms: _417  and  _420
REMARK  173  A    between atoms: _420  and  _421
REMARK  174  A    between atoms: _431  and  _433
REMARK  175  A    between atoms: _433  and  _434
REMARK  176  A    between atoms: _437  and  _439
REMARK  177  A    between atoms: _439  and  _440
REMARK  178  A    between atoms: _439  and  _442
REMARK  179  A    between atoms: _445  and  _447
REMARK  180  A    between atoms: _447  and  _448
REMARK  181  A    between atoms: _447  and  _450
REMARK  182  A    between atoms: _450  and  _451
REMARK  183  A    between atoms: _453  and  _455
REMARK  184  A    between atoms: _455  and  _456
REMARK  185  A    between atoms: _455  and  _458
REMARK  186  A    between atoms: _461  and  _463
REMARK  187  A    between atoms: _463  and  _464
REMARK  188  A    between atoms: _463  and  _466
REMARK  189  A    between atoms: _466  and  _467
REMARK  190  A    between atoms: _470  and  _472
REMARK  191  A    between atoms: _472  and  _473
REMARK  192  A    between atoms: _472  and  _475
REMARK  193  A    between atoms: _475  and  _476
REMARK  194  A    between atoms: _476  and  _477
REMARK  195  A    between atoms: _477  and  _478
REMARK  196  A    between atoms: _487  and  _489
REMARK  197  A    between atoms: _489  and  _490
REMARK  198  A    between atoms: _489  and  _492
REMARK  199  A    between atoms: _495  and  _497
REMARK  200  A    between atoms: _497  and  _498
REMARK  201  A    between atoms: _497  and  _500
REMARK  202  A    between atoms: _500  and  _501
REMARK  203  A    between atoms: _504  and  _506
REMARK  204  A    between atoms: _506  and  _507
REMARK  205  A    between atoms: _506  and  _509
REMARK  206  A    between atoms: _509  and  _510
REMARK  207  A    between atoms: _513  and  _515
REMARK  208  A    between atoms: _515  and  _516
REMARK  209  A    between atoms: _515  and  _518
REMARK  210  A    between atoms: _521  and  _523
REMARK  211  A    between atoms: _523  and  _524
REMARK  212  A    between atoms: _523  and  _526
REMARK  213  A    between atoms: _528  and  _530
REMARK  214  A    between atoms: _530  and  _531
REMARK  215  A    between atoms: _530  and  _533
REMARK  216  A    between atoms: _533  and  _534
REMARK  217  A    between atoms: _539  and  _541
REMARK  218  A    between atoms: _541  and  _542
REMARK  219  A    between atoms: _541  and  _544
REMARK  220  A    between atoms: _544  and  _545
REMARK  221  A    between atoms: _547  and  _549
REMARK  222  A    between atoms: _549  and  _550
REMARK  223  A    between atoms: _549  and  _552
REMARK  224  A    between atoms: _552  and  _553
REMARK                            x       y       z     vdW  Elec       q    Type
REMARK                         _______ _______ _______ _____ _____    ______ ____
ROOT
ATOM      1  CA  VAL A   1      66.237  21.411  40.712  0.00  0.00    +0.133 C 
ENDROOT
BRANCH   1   2
ATOM      2  CB  VAL A   1      66.672  20.833  39.351  0.00  0.00    +0.023 C 
ATOM      3  CG2 VAL A   1      68.088  20.275  39.445  0.00  0.00    +0.002 C 
ATOM      4  CG1 VAL A   1      65.701  19.738  38.926  0.00  0.00    +0.002 C 
ENDBRANCH   1   2
BRANCH   1   5
ATOM      5  N   VAL A   1      64.989  22.144  40.594  0.00  0.00    -0.239 NA
ATOM      6  H   VAL A   1      64.554  22.287  39.660  0.00  0.00    +0.142 HD
ENDBRANCH   1   5
BRANCH   1   7
ATOM      7  C   VAL A   1      67.278  22.425  41.192  0.00  0.00    +0.224 C 
ATOM      8  O   VAL A   1      67.324  23.555  40.700  0.00  0.00    -0.287 OA
ENDBRANCH   1   7
TORSDOF 3
REMARK  Name = ../refined-set-2016/1k27/1k27_pocket.pdb
REMARK  224 active torsions:
REMARK  status: ('A' for Active; 'I' for Inactive)
REMARK    1  A    between atoms: _1  and  _3
REMARK    2  A    between atoms: _3  and  _4
REMARK    3  A    between atoms: _6  and  _8
REMARK    4  A    between atoms: _8  and  _9
REMARK    5  A    between atoms: _8  and  _11
REMARK    6  A    between atoms: _11  and  _12
REMARK    7  A    between atoms: _15  and  _17
REMARK    8  A    between atoms: _17  and  _18
REMARK    9  A    between atoms: _20  and  _22
REMARK   10  A    between atoms: _22  and  _23
REMARK   11  A    between atoms: _22  and  _25
REMARK   12  A    between atoms: _25  and  _26
REMARK   13  A    between atoms: _26  and  _27
REMARK   14  A    between atoms: _27  and  _28
REMARK   15  A    between atoms: _37  and  _39
REMARK   16  A    between atoms: _39  and  _40
REMARK   17  A    between atoms: _39  and  _42
REMARK   18  A    between atoms: _42  and  _43
REMARK   19  A    between atoms: _48  and  _50
REMARK   20  A    between atoms: _50  and  _51
REMARK   21  A    between atoms: _50  and  _53
REMARK   22  A    between atoms: _53  and  _54
REMARK   23  A    between atoms: _59  and  _61
REMARK   24  A    between atoms: _61  and  _62
REMARK   25  A    between atoms: _61  and  _64
REMARK   26  A    between atoms: _64  and  _65
REMARK   27  A    between atoms: _68  and  _70
REMARK   28  A    between atoms: _70  and  _71
REMARK   29  A    between atoms: _70  and  _73
REMARK   30  A    between atoms: _73  and  _74
REMARK   31  A    between atoms: _74  and  _75
REMARK   32  A    between atoms: _78  and  _79
REMARK   33  A    between atoms: _84  and  _86
REMARK   34  A    between atoms: _86  and  _87
REMARK   35  A    between atoms: _86  and  _89
REMARK   36  A    between atoms: _89  and  _90
REMARK   37  A    between atoms: _92  and  _94
REMARK   38  A    between atoms: _94  and  _95
REMARK   39  A    between atoms: _94  and  _97
REMARK   40  A    between atoms: _100  and  _102
REMARK   41  A    between atoms: _102  and  _103
REMARK   42  A    between atoms: _102  and  _105
REMARK   43  A    between atoms: _105  and  _106
REMARK   44  A    between atoms: _111  and  _112
REMARK   45  A    between atoms: _114  and  _116
REMARK   46  A    between atoms: _116  and  _117
REMARK   47  A    between atoms: _116  and  _119
REMARK   48  A    between atoms: _119  and  _120
REMARK   49  A    between atoms: _123  and  _125
REMARK   50  A    between atoms: _125  and  _126
REMARK   51  A    between atoms: _129  and  _131
REMARK   52  A    between atoms: _131  and  _132
REMARK   53  A    between atoms: _131  and  _134
REMARK   54  A    between atoms: _136  and  _138
REMARK   55  A    between atoms: _138  and  _139
REMARK   56  A    between atoms: _141  and  _143
REMARK   57  A    between atoms: _143  and  _144
REMARK   58  A    between atoms: _143  and  _146
REMARK   59  A    between atoms: _146  and  _147
REMARK   60  A    between atoms: _149  and  _151
REMARK   61  A    between atoms: _151  and  _152
REMARK   62  A    between atoms: _151  and  _154
REMARK   63  A    between atoms: _154  and  _155
REMARK   64  A    between atoms: _158  and  _160
REMARK   65  A    between atoms: _160  and  _161
REMARK   66  A    between atoms: _160  and  _163
REMARK   67  A    between atoms: _163  and  _164
REMARK   68  A    between atoms: _164  and  _165
REMARK   69  A    between atoms: _165  and  _166
REMARK   70  A    between atoms: _175  and  _177
REMARK   71  A    between atoms: _177  and  _178
REMARK   72  A    between atoms: _177  and  _180
REMARK   73  A    between atoms: _180  and  _181
REMARK   74  A    between atoms: _181  and  _182
REMARK   75  A    between atoms: _184  and  _186
REMARK   76  A    between atoms: _186  and  _187
REMARK   77  A    between atoms: _186  and  _189
REMARK   78  A    between atoms: _192  and  _194
REMARK   79  A    between atoms: _194  and  _195
REMARK   80  A    between atoms: _194  and  _197
REMARK   81  A    between atoms: _197  and  _198
REMARK   82  A    between atoms: _201  and  _203
REMARK   83  A    between atoms: _203  and  _204
REMARK   84  A    between atoms: _203  and  _206
REMARK   85  A    between atoms: _206  and  _207
REMARK   86  A    between atoms: _210  and  _212
REMARK   87  A    between atoms: _212  and  _213
REMARK   88  A    between atoms: _212  and  _215
REMARK   89  A    between atoms: _215  and  _216
REMARK   90  A    between atoms: _216  and  _217
REMARK   91  A    between atoms: _220  and  _222
REMARK   92  A    between atoms: _222  and  _223
REMARK   93  A    between atoms: _226  and  _227
REMARK   94  A    between atoms: _232  and  _234
REMARK   95  A    between atoms: _234  and  _235
REMARK   96  A    between atoms: _234  and  _237
REMARK   97  A    between atoms: _237  and  _238
REMARK   98  A    between atoms: _238  and  _239
REMARK   99  A    between atoms: _239  and  _240
REMARK  100  A    between atoms: _249  and  _251
REMARK  101  A    between atoms: _251  and  _252
REMARK  102  A    between atoms: _251  and  _254
REMARK  103  A    between atoms: _254  and  _255
REMARK  104  A    between atoms: _261  and  _263
REMARK  105  A    between atoms: _263  and  _264
REMARK  106  A    between atoms: _263  and  _266
REMARK  107  A    between atoms: _266  and  _267
REMARK  108  A    between atoms: _269  and  _271
REMARK  109  A    between atoms: _271  and  _272
REMARK  110  A    between atoms: _271  and  _274
REMARK  111  A    between atoms: _274  and  _275
REMARK  112  A    between atoms: _277  and  _279
REMARK  113  A    between atoms: _279  and  _280
REMARK  114  A    between atoms: _279  and  _282
REMARK  115  A    between atoms: _282  and  _283
REMARK  116  A    between atoms: _289  and  _291
REMARK  117  A    between atoms: _291  and  _292
REMARK  118  A    between atoms: _291  and  _294
REMARK  119  A    between atoms: _297  and  _299
REMARK  120  A    between atoms: _299  and  _300
REMARK  121  A    between atoms: _299  and  _302
REMARK  122  A    between atoms: _302  and  _303
REMARK  123  A    between atoms: _306  and  _308
REMARK  124  A    between atoms: _308  and  _309
REMARK  125  A    between atoms: _308  and  _311
REMARK  126  A    between atoms: _311  and  _312
REMARK  127  A    between atoms: _317  and  _319
REMARK  128  A    between atoms: _319  and  _320
REMARK  129  A    between atoms: _319  and  _322
REMARK  130  A    between atoms: _322  and  _323
REMARK  131  A    between atoms: _323  and  _324
REMARK  132  A    between atoms: _326  and  _328
REMARK  133  A    between atoms: _328  and  _329
REMARK  134  A    between atoms: _328  and  _331
REMARK  135  A    between atoms: _331  and  _332
REMARK  136  A    between atoms: _335  and  _337
REMARK  137  A    between atoms: _337  and  _338
REMARK  138  A    between atoms: _337  and  _340
REMARK  139  A    between atoms: _340  and  _341
REMARK  140  A    between atoms: _344  and  _346
REMARK  141  A    between atoms: _346  and  _347
REMARK  142  A    between atoms: _346  and  _349
REMARK  143  A    between atoms: _352  and  _354
REMARK  144  A    between atoms: _354  and  _355
REMARK  145  A    between atoms: _354  and  _357
REMARK  146  A    between atoms: _357  and  _358
REMARK  147  A    between atoms: _358  and  _359
REMARK  148  A    between atoms: _361  and  _363
REMARK  149  A    between atoms: _363  and  _364
REMARK  150  A    between atoms: _367  and  _369
REMARK  151  A    between atoms: _369  and  _370
REMARK  152  A    between atoms: _369  and  _372
REMARK  153  A    between atoms: _372  and  _373
REMARK  154  A    between atoms: _376  and  _378
REMARK  155  A    between atoms: _378  and  _379
REMARK  156  A    between atoms: _378  and  _381
REMARK  157  A    between atoms: _381  and  _382
REMARK  158  A    between atoms: _385  and  _387
REMARK  159  A    between atoms: _387  and  _388
REMARK  160  A    between atoms: _387  and  _390
REMARK  161  A    between atoms: _390  and  _391
REMARK  162  A    between atoms: _396  and  _397
REMARK  163  A    between atoms: _399  and  _401
REMARK  164  A    between atoms: _401  and  _402
REMARK  165  A    between atoms: _401  and  _404
REMARK  166  A    between atoms: _404  and  _405
REMARK  167  A    between atoms: _408  and  _410
REMARK  168  A    between atoms: _410  and  _411
REMARK  169  A    between atoms: _410  and  _413
REMARK  170  A    between atoms: _415  and  _417
REMARK  171  A    between atoms: _417  and  _418
REMARK  172  A    between atoms: _417  and  _420
REMARK  173  A    between atoms: _420  and  _421
REMARK  174  A    between atoms: _431  and  _433
REMARK  175  A    between atoms: _433  and  _434
REMARK  176  A    between atoms: _437  and  _439
REMARK  177  A    between atoms: _439  and  _440
REMARK  178  A    between atoms: _439  and  _442
REMARK  179  A    between atoms: _445  and  _447
REMARK  180  A    between atoms: _447  and  _448
REMARK  181  A    between atoms: _447  and  _450
REMARK  182  A    between atoms: _450  and  _451
REMARK  183  A    between atoms: _453  and  _455
REMARK  184  A    between atoms: _455  and  _456
REMARK  185  A    between atoms: _455  and  _458
REMARK  186  A    between atoms: _461  and  _463
REMARK  187  A    between atoms: _463  and  _464
REMARK  188  A    between atoms: _463  and  _466
REMARK  189  A    between atoms: _466  and  _467
REMARK  190  A    between atoms: _470  and  _472
REMARK  191  A    between atoms: _472  and  _473
REMARK  192  A    between atoms: _472  and  _475
REMARK  193  A    between atoms: _475  and  _476
REMARK  194  A    between atoms: _476  and  _477
REMARK  195  A    between atoms: _477  and  _478
REMARK  196  A    between atoms: _487  and  _489
REMARK  197  A    between atoms: _489  and  _490
REMARK  198  A    between atoms: _489  and  _492
REMARK  199  A    between atoms: _495  and  _497
REMARK  200  A    between atoms: _497  and  _498
REMARK  201  A    between atoms: _497  and  _500
REMARK  202  A    between atoms: _500  and  _501
REMARK  203  A    between atoms: _504  and  _506
REMARK  204  A    between atoms: _506  and  _507
REMARK  205  A    between atoms: _506  and  _509
REMARK  206  A    between atoms: _509  and  _510
REMARK  207  A    between atoms: _513  and  _515
REMARK  208  A    between atoms: _515  and  _516
REMARK  209  A    between atoms: _515  and  _518
REMARK  210  A    between atoms: _521  and  _523
REMARK  211  A    between atoms: _523  and  _524
REMARK  212  A    between atoms: _523  and  _526
REMARK  213  A    between atoms: _528  and  _530
REMARK  214  A    between atoms: _530  and  _531
REMARK  215  A    between atoms: _530  and  _533
REMARK  216  A    between atoms: _533  and  _534
REMARK  217  A    between atoms: _539  and  _541
REMARK  218  A    between atoms: _541  and  _542
REMARK  219  A    between atoms: _541  and  _544
REMARK  220  A    between atoms: _544  and  _545
REMARK  221  A    between atoms: _547  and  _549
REMARK  222  A    between atoms: _549  and  _550
REMARK  223  A    between atoms: _549  and  _552
REMARK  224  A    between atoms: _552  and  _553
REMARK                            x       y       z     vdW  Elec       q    Type
REMARK                         _______ _______ _______ _____ _____    ______ ____
ROOT
ATOM      1  CG  TYR A   1      69.842  23.702  37.721  0.00  0.00    -0.020 A 
ATOM      2  CD2 TYR A   1      68.574  24.234  37.929  0.00  0.00    -0.001 A 
ATOM      3  CE2 TYR A   1      67.458  23.712  37.283  0.00  0.00    +0.036 A 
ATOM      4  CZ  TYR A   1      67.602  22.646  36.412  0.00  0.00    +0.134 A 
ATOM      5  CE1 TYR A   1      68.855  22.097  36.182  0.00  0.00    +0.036 A 
ATOM      6  CD1 TYR A   1      69.967  22.629  36.838  0.00  0.00    -0.001 A 
ENDROOT
BRANCH   4   7
ATOM      7  OH  TYR A   1      66.491  22.129  35.782  0.00  0.00    -0.506 OA
ATOM      8  HH  TYR A   1      65.849  21.804  36.462  0.00  0.00    +0.292 HD
ENDBRANCH   4   7
BRANCH   1   9
ATOM      9  CB  TYR A   1      71.041  24.246  38.462  0.00  0.00    +0.051 C 
BRANCH   9  10
ATOM     10  CA  TYR A   1      71.410  23.415  39.689  0.00  0.00    +0.137 C 
BRANCH  10  11
ATOM     11  N   TYR A   1      70.311  23.453  40.642  0.00  0.00    -0.239 NA
ATOM     12  H   TYR A   1      69.457  23.998  40.407  0.00  0.00    +0.142 HD
ENDBRANCH  10  11
BRANCH  10  13
ATOM     13  C   TYR A   1      72.733  23.893  40.288  0.00  0.00    +0.224 C 
ATOM     14  O   TYR A   1      73.786  23.315  40.016  0.00  0.00    -0.287 OA
ENDBRANCH  10  13
ENDBRANCH   9  10
ENDBRANCH   1   9
TORSDOF 5
REMARK  Name = ../refined-set-2016/1k27/1k27_pocket.pdb
REMARK  224 active torsions:
REMARK  status: ('A' for Active; 'I' for Inactive)
REMARK    1  A    between atoms: _1  and  _3
REMARK    2  A    between atoms: _3  and  _4
REMARK    3  A    between atoms: _6  and  _8
REMARK    4  A    between atoms: _8  and  _9
REMARK    5  A    between atoms: _8  and  _11
REMARK    6  A    between atoms: _11  and  _12
REMARK    7  A    between atoms: _15  and  _17
REMARK    8  A    between atoms: _17  and  _18
REMARK    9  A    between atoms: _20  and  _22
REMARK   10  A    between atoms: _22  and  _23
REMARK   11  A    between atoms: _22  and  _25
REMARK   12  A    between atoms: _25  and  _26
REMARK   13  A    between atoms: _26  and  _27
REMARK   14  A    between atoms: _27  and  _28
REMARK   15  A    between atoms: _37  and  _39
REMARK   16  A    between atoms: _39  and  _40
REMARK   17  A    between atoms: _39  and  _42
REMARK   18  A    between atoms: _42  and  _43
REMARK   19  A    between atoms: _48  and  _50
REMARK   20  A    between atoms: _50  and  _51
REMARK   21  A    between atoms: _50  and  _53
REMARK   22  A    between atoms: _53  and  _54
REMARK   23  A    between atoms: _59  and  _61
REMARK   24  A    between atoms: _61  and  _62
REMARK   25  A    between atoms: _61  and  _64
REMARK   26  A    between atoms: _64  and  _65
REMARK   27  A    between atoms: _68  and  _70
REMARK   28  A    between atoms: _70  and  _71
REMARK   29  A    between atoms: _70  and  _73
REMARK   30  A    between atoms: _73  and  _74
REMARK   31  A    between atoms: _74  and  _75
REMARK   32  A    between atoms: _78  and  _79
REMARK   33  A    between atoms: _84  and  _86
REMARK   34  A    between atoms: _86  and  _87
REMARK   35  A    between atoms: _86  and  _89
REMARK   36  A    between atoms: _89  and  _90
REMARK   37  A    between atoms: _92  and  _94
REMARK   38  A    between atoms: _94  and  _95
REMARK   39  A    between atoms: _94  and  _97
REMARK   40  A    between atoms: _100  and  _102
REMARK   41  A    between atoms: _102  and  _103
REMARK   42  A    between atoms: _102  and  _105
REMARK   43  A    between atoms: _105  and  _106
REMARK   44  A    between atoms: _111  and  _112
REMARK   45  A    between atoms: _114  and  _116
REMARK   46  A    between atoms: _116  and  _117
REMARK   47  A    between atoms: _116  and  _119
REMARK   48  A    between atoms: _119  and  _120
REMARK   49  A    between atoms: _123  and  _125
REMARK   50  A    between atoms: _125  and  _126
REMARK   51  A    between atoms: _129  and  _131
REMARK   52  A    between atoms: _131  and  _132
REMARK   53  A    between atoms: _131  and  _134
REMARK   54  A    between atoms: _136  and  _138
REMARK   55  A    between atoms: _138  and  _139
REMARK   56  A    between atoms: _141  and  _143
REMARK   57  A    between atoms: _143  and  _144
REMARK   58  A    between atoms: _143  and  _146
REMARK   59  A    between atoms: _146  and  _147
REMARK   60  A    between atoms: _149  and  _151
REMARK   61  A    between atoms: _151  and  _152
REMARK   62  A    between atoms: _151  and  _154
REMARK   63  A    between atoms: _154  and  _155
REMARK   64  A    between atoms: _158  and  _160
REMARK   65  A    between atoms: _160  and  _161
REMARK   66  A    between atoms: _160  and  _163
REMARK   67  A    between atoms: _163  and  _164
REMARK   68  A    between atoms: _164  and  _165
REMARK   69  A    between atoms: _165  and  _166
REMARK   70  A    between atoms: _175  and  _177
REMARK   71  A    between atoms: _177  and  _178
REMARK   72  A    between atoms: _177  and  _180
REMARK   73  A    between atoms: _180  and  _181
REMARK   74  A    between atoms: _181  and  _182
REMARK   75  A    between atoms: _184  and  _186
REMARK   76  A    between atoms: _186  and  _187
REMARK   77  A    between atoms: _186  and  _189
REMARK   78  A    between atoms: _192  and  _194
REMARK   79  A    between atoms: _194  and  _195
REMARK   80  A    between atoms: _194  and  _197
REMARK   81  A    between atoms: _197  and  _198
REMARK   82  A    between atoms: _201  and  _203
REMARK   83  A    between atoms: _203  and  _204
REMARK   84  A    between atoms: _203  and  _206
REMARK   85  A    between atoms: _206  and  _207
REMARK   86  A    between atoms: _210  and  _212
REMARK   87  A    between atoms: _212  and  _213
REMARK   88  A    between atoms: _212  and  _215
REMARK   89  A    between atoms: _215  and  _216
REMARK   90  A    between atoms: _216  and  _217
REMARK   91  A    between atoms: _220  and  _222
REMARK   92  A    between atoms: _222  and  _223
REMARK   93  A    between atoms: _226  and  _227
REMARK   94  A    between atoms: _232  and  _234
REMARK   95  A    between atoms: _234  and  _235
REMARK   96  A    between atoms: _234  and  _237
REMARK   97  A    between atoms: _237  and  _238
REMARK   98  A    between atoms: _238  and  _239
REMARK   99  A    between atoms: _239  and  _240
REMARK  100  A    between atoms: _249  and  _251
REMARK  101  A    between atoms: _251  and  _252
REMARK  102  A    between atoms: _251  and  _254
REMARK  103  A    between atoms: _254  and  _255
REMARK  104  A    between atoms: _261  and  _263
REMARK  105  A    between atoms: _263  and  _264
REMARK  106  A    between atoms: _263  and  _266
REMARK  107  A    between atoms: _266  and  _267
REMARK  108  A    between atoms: _269  and  _271
REMARK  109  A    between atoms: _271  and  _272
REMARK  110  A    between atoms: _271  and  _274
REMARK  111  A    between atoms: _274  and  _275
REMARK  112  A    between atoms: _277  and  _279
REMARK  113  A    between atoms: _279  and  _280
REMARK  114  A    between atoms: _279  and  _282
REMARK  115  A    between atoms: _282  and  _283
REMARK  116  A    between atoms: _289  and  _291
REMARK  117  A    between atoms: _291  and  _292
REMARK  118  A    between atoms: _291  and  _294
REMARK  119  A    between atoms: _297  and  _299
REMARK  120  A    between atoms: _299  and  _300
REMARK  121  A    between atoms: _299  and  _302
REMARK  122  A    between atoms: _302  and  _303
REMARK  123  A    between atoms: _306  and  _308
REMARK  124  A    between atoms: _308  and  _309
REMARK  125  A    between atoms: _308  and  _311
REMARK  126  A    between atoms: _311  and  _312
REMARK  127  A    between atoms: _317  and  _319
REMARK  128  A    between atoms: _319  and  _320
REMARK  129  A    between atoms: _319  and  _322
REMARK  130  A    between atoms: _322  and  _323
REMARK  131  A    between atoms: _323  and  _324
REMARK  132  A    between atoms: _326  and  _328
REMARK  133  A    between atoms: _328  and  _329
REMARK  134  A    between atoms: _328  and  _331
REMARK  135  A    between atoms: _331  and  _332
REMARK  136  A    between atoms: _335  and  _337
REMARK  137  A    between atoms: _337  and  _338
REMARK  138  A    between atoms: _337  and  _340
REMARK  139  A    between atoms: _340  and  _341
REMARK  140  A    between atoms: _344  and  _346
REMARK  141  A    between atoms: _346  and  _347
REMARK  142  A    between atoms: _346  and  _349
REMARK  143  A    between atoms: _352  and  _354
REMARK  144  A    between atoms: _354  and  _355
REMARK  145  A    between atoms: _354  and  _357
REMARK  146  A    between atoms: _357  and  _358
REMARK  147  A    between atoms: _358  and  _359
REMARK  148  A    between atoms: _361  and  _363
REMARK  149  A    between atoms: _363  and  _364
REMARK  150  A    between atoms: _367  and  _369
REMARK  151  A    between atoms: _369  and  _370
REMARK  152  A    between atoms: _369  and  _372
REMARK  153  A    between atoms: _372  and  _373
REMARK  154  A    between atoms: _376  and  _378
REMARK  155  A    between atoms: _378  and  _379
REMARK  156  A    between atoms: _378  and  _381
REMARK  157  A    between atoms: _381  and  _382
REMARK  158  A    between atoms: _385  and  _387
REMARK  159  A    between atoms: _387  and  _388
REMARK  160  A    between atoms: _387  and  _390
REMARK  161  A    between atoms: _390  and  _391
REMARK  162  A    between atoms: _396  and  _397
REMARK  163  A    between atoms: _399  and  _401
REMARK  164  A    between atoms: _401  and  _402
REMARK  165  A    between atoms: _401  and  _404
REMARK  166  A    between atoms: _404  and  _405
REMARK  167  A    between atoms: _408  and  _410
REMARK  168  A    between atoms: _410  and  _411
REMARK  169  A    between atoms: _410  and  _413
REMARK  170  A    between atoms: _415  and  _417
REMARK  171  A    between atoms: _417  and  _418
REMARK  172  A    between atoms: _417  and  _420
REMARK  173  A    between atoms: _420  and  _421
REMARK  174  A    between atoms: _431  and  _433
REMARK  175  A    between atoms: _433  and  _434
REMARK  176  A    between atoms: _437  and  _439
REMARK  177  A    between atoms: _439  and  _440
REMARK  178  A    between atoms: _439  and  _442
REMARK  179  A    between atoms: _445  and  _447
REMARK  180  A    between atoms: _447  and  _448
REMARK  181  A    between atoms: _447  and  _450
REMARK  182  A    between atoms: _450  and  _451
REMARK  183  A    between atoms: _453  and  _455
REMARK  184  A    between atoms: _455  and  _456
REMARK  185  A    between atoms: _455  and  _458
REMARK  186  A    between atoms: _461  and  _463
REMARK  187  A    between atoms: _463  and  _464
REMARK  188  A    between atoms: _463  and  _466
REMARK  189  A    between atoms: _466  and  _467
REMARK  190  A    between atoms: _470  and  _472
REMARK  191  A    between atoms: _472  and  _473
REMARK  192  A    between atoms: _472  and  _475
REMARK  193  A    between atoms: _475  and  _476
REMARK  194  A    between atoms: _476  and  _477
REMARK  195  A    between atoms: _477  and  _478
REMARK  196  A    between atoms: _487  and  _489
REMARK  197  A    between atoms: _489  and  _490
REMARK  198  A    between atoms: _489  and  _492
REMARK  199  A    between atoms: _495  and  _497
REMARK  200  A    between atoms: _497  and  _498
REMARK  201  A    between atoms: _497  and  _500
REMARK  202  A    between atoms: _500  and  _501
REMARK  203  A    between atoms: _504  and  _506
REMARK  204  A    between atoms: _506  and  _507
REMARK  205  A    between atoms: _506  and  _509
REMARK  206  A    between atoms: _509  and  _510
REMARK  207  A    between atoms: _513  and  _515
REMARK  208  A    between atoms: _515  and  _516
REMARK  209  A    between atoms: _515  and  _518
REMARK  210  A    between atoms: _521  and  _523
REMARK  211  A    between atoms: _523  and  _524
REMARK  212  A    between atoms: _523  and  _526
REMARK  213  A    between atoms: _528  and  _530
REMARK  214  A    between atoms: _530  and  _531
REMARK  215  A    between atoms: _530  and  _533
REMARK  216  A    between atoms: _533  and  _534
REMARK  217  A    between atoms: _539  and  _541
REMARK  218  A    between atoms: _541  and  _542
REMARK  219  A    between atoms: _541  and  _544
REMARK  220  A    between atoms: _544  and  _545
REMARK  221  A    between atoms: _547  and  _549
REMARK  222  A    between atoms: _549  and  _550
REMARK  223  A    between atoms: _549  and  _552
REMARK  224  A    between atoms: _552  and  _553
REMARK                            x       y       z     vdW  Elec       q    Type
REMARK                         _______ _______ _______ _____ _____    ______ ____
ROOT
ATOM      1  C   CYS A   3      62.811  15.893  23.904  0.00  0.00    +0.242 C 
ATOM      2  N   GLY A   4      62.101  16.949  23.532  0.00  0.00    -0.295 N 
ATOM      3  H   GLY A   4      62.230  17.857  24.022  0.00  0.00    +0.150 HD
ATOM      4  O   CYS A   3      62.690  14.779  23.389  0.00  0.00    -0.273 OA
ENDROOT
BRANCH   2   5
ATOM      5  CA  GLY A   4      61.149  16.846  22.449  0.00  0.00    +0.176 C 
BRANCH   5   6
ATOM      6  C   GLY A   4      61.873  17.250  21.186  0.00  0.00    +0.243 C 
ATOM      7  O   GLY A   4      62.765  18.103  21.226  0.00  0.00    -0.273 OA
ATOM      8  N   SER A   5      61.520  16.625  20.070  0.00  0.00    -0.295 N 
ATOM      9  H   SER A   5      60.785  15.890  20.107  0.00  0.00    +0.150 HD
BRANCH   8  10
ATOM     10  CA  SER A   5      62.143  16.950  18.793  0.00  0.00    +0.178 C 
BRANCH  10  11
ATOM     11  C   SER A   5      61.321  18.009  18.084  0.00  0.00    +0.243 C 
ATOM     12  O   SER A   5      60.099  17.894  17.997  0.00  0.00    -0.273 OA
ATOM     13  N   LEU A   6      61.997  19.034  17.576  0.00  0.00    -0.298 N 
ATOM     14  H   LEU A   6      63.029  19.068  17.701  0.00  0.00    +0.150 HD
BRANCH  13  15
ATOM     15  CA  LEU A   6      61.340  20.111  16.851  0.00  0.00    +0.137 C 
BRANCH  15  16
ATOM     16  C   LEU A   6      61.698  20.036  15.367  0.00  0.00    +0.227 C 
ATOM     17  O   LEU A   6      61.410  20.961  14.605  0.00  0.00    -0.286 OA
ENDBRANCH  15  16
BRANCH  15  18
ATOM     18  CB  LEU A   6      61.772  21.472  17.416  0.00  0.00    +0.028 C 
BRANCH  18  19
ATOM     19  CG  LEU A   6      61.421  21.727  18.888  0.00  0.00    +0.002 C 
ATOM     20  CD2 LEU A   6      61.927  23.109  19.303  0.00  0.00    +0.000 C 
ATOM     21  CD1 LEU A   6      59.909  21.634  19.080  0.00  0.00    +0.000 C 
ENDBRANCH  18  19
ENDBRANCH  15  18
ENDBRANCH  13  15
ENDBRANCH  10  11
BRANCH  10  22
ATOM     22  CB  SER A   5      62.223  15.719  17.890  0.00  0.00    +0.166 C 
BRANCH  22  23
ATOM     23  OG  SER A   5      62.521  16.107  16.552  0.00  0.00    -0.380 OA
ATOM     24  H   SER A   5      62.570  15.301  15.979  0.00  0.00    +0.211 HD
ENDBRANCH  22  23
ENDBRANCH  10  22
ENDBRANCH   8  10
ENDBRANCH   5   6
ENDBRANCH   2   5
BRANCH   1  25
ATOM     25  CA  CYS A   3      63.798  16.137  25.032  0.00  0.00    +0.160 C 
BRANCH  25  28
ATOM     26  C   ALA A   2      64.632  14.897  26.931  0.00  0.00    +0.241 C 
ATOM     27  O   ALA A   2      64.668  15.916  27.620  0.00  0.00    -0.273 OA
ATOM     28  N   CYS A   3      64.221  14.898  25.667  0.00  0.00    -0.296 N 
ATOM     29  H   CYS A   3      64.202  14.008  25.129  0.00  0.00    +0.150 HD
BRANCH  26  30
ATOM     30  CA  ALA A   2      65.067  13.562  27.522  0.00  0.00    +0.149 C 
ATOM     31  CB  ALA A   2      63.921  12.947  28.316  0.00  0.00    +0.031 C 
BRANCH  30  33
ATOM     32  C   THR A   1      67.379  14.175  27.953  0.00  0.00    +0.241 C 
ATOM     33  N   ALA A   2      66.160  13.918  28.413  0.00  0.00    -0.297 N 
ATOM     34  H   ALA A   2      65.982  13.973  29.436  0.00  0.00    +0.150 HD
ATOM     35  O   THR A   1      67.701  14.062  26.764  0.00  0.00    -0.274 OA
BRANCH  32  36
ATOM     36  CA  THR A   1      68.389  14.589  29.001  0.00  0.00    +0.172 C 
BRANCH  36  37
ATOM     37  CB  THR A   1      68.623  16.117  28.897  0.00  0.00    +0.135 C 
ATOM     38  CG2 THR A   1      69.350  16.471  27.602  0.00  0.00    +0.034 C 
BRANCH  37  39
ATOM     39  OG1 THR A   1      67.358  16.792  28.925  0.00  0.00    -0.383 OA
ATOM     40  HG1 THR A   1      66.806  16.488  28.162  0.00  0.00    +0.210 HD
ENDBRANCH  37  39
ENDBRANCH  36  37
BRANCH  36  41
ATOM     41  N   THR A   1      69.619  13.846  28.869  0.00  0.00    -0.236 NA
ATOM     42  H   THR A   1      69.884  13.442  27.948  0.00  0.00    +0.142 HD
ENDBRANCH  36  41
ENDBRANCH  32  36
ENDBRANCH  30  33
ENDBRANCH  26  30
ENDBRANCH  25  28
BRANCH  25  43
ATOM     43  CB  CYS A   3      65.013  16.884  24.477  0.00  0.00    +0.098 C 
ATOM     44  SG  CYS A   3      65.918  15.954  23.220  0.00  0.00    -0.080 S 
ENDBRANCH  25  43
ENDBRANCH   1  25
TORSDOF 19
REMARK  Name = ../refined-set-2016/1k27/1k27_pocket.pdb
REMARK  224 active torsions:
REMARK  status: ('A' for Active; 'I' for Inactive)
REMARK    1  A    between atoms: _1  and  _3
REMARK    2  A    between atoms: _3  and  _4
REMARK    3  A    between atoms: _6  and  _8
REMARK    4  A    between atoms: _8  and  _9
REMARK    5  A    between atoms: _8  and  _11
REMARK    6  A    between atoms: _11  and  _12
REMARK    7  A    between atoms: _15  and  _17
REMARK    8  A    between atoms: _17  and  _18
REMARK    9  A    between atoms: _20  and  _22
REMARK   10  A    between atoms: _22  and  _23
REMARK   11  A    between atoms: _22  and  _25
REMARK   12  A    between atoms: _25  and  _26
REMARK   13  A    between atoms: _26  and  _27
REMARK   14  A    between atoms: _27  and  _28
REMARK   15  A    between atoms: _37  and  _39
REMARK   16  A    between atoms: _39  and  _40
REMARK   17  A    between atoms: _39  and  _42
REMARK   18  A    between atoms: _42  and  _43
REMARK   19  A    between atoms: _48  and  _50
REMARK   20  A    between atoms: _50  and  _51
REMARK   21  A    between atoms: _50  and  _53
REMARK   22  A    between atoms: _53  and  _54
REMARK   23  A    between atoms: _59  and  _61
REMARK   24  A    between atoms: _61  and  _62
REMARK   25  A    between atoms: _61  and  _64
REMARK   26  A    between atoms: _64  and  _65
REMARK   27  A    between atoms: _68  and  _70
REMARK   28  A    between atoms: _70  and  _71
REMARK   29  A    between atoms: _70  and  _73
REMARK   30  A    between atoms: _73  and  _74
REMARK   31  A    between atoms: _74  and  _75
REMARK   32  A    between atoms: _78  and  _79
REMARK   33  A    between atoms: _84  and  _86
REMARK   34  A    between atoms: _86  and  _87
REMARK   35  A    between atoms: _86  and  _89
REMARK   36  A    between atoms: _89  and  _90
REMARK   37  A    between atoms: _92  and  _94
REMARK   38  A    between atoms: _94  and  _95
REMARK   39  A    between atoms: _94  and  _97
REMARK   40  A    between atoms: _100  and  _102
REMARK   41  A    between atoms: _102  and  _103
REMARK   42  A    between atoms: _102  and  _105
REMARK   43  A    between atoms: _105  and  _106
REMARK   44  A    between atoms: _111  and  _112
REMARK   45  A    between atoms: _114  and  _116
REMARK   46  A    between atoms: _116  and  _117
REMARK   47  A    between atoms: _116  and  _119
REMARK   48  A    between atoms: _119  and  _120
REMARK   49  A    between atoms: _123  and  _125
REMARK   50  A    between atoms: _125  and  _126
REMARK   51  A    between atoms: _129  and  _131
REMARK   52  A    between atoms: _131  and  _132
REMARK   53  A    between atoms: _131  and  _134
REMARK   54  A    between atoms: _136  and  _138
REMARK   55  A    between atoms: _138  and  _139
REMARK   56  A    between atoms: _141  and  _143
REMARK   57  A    between atoms: _143  and  _144
REMARK   58  A    between atoms: _143  and  _146
REMARK   59  A    between atoms: _146  and  _147
REMARK   60  A    between atoms: _149  and  _151
REMARK   61  A    between atoms: _151  and  _152
REMARK   62  A    between atoms: _151  and  _154
REMARK   63  A    between atoms: _154  and  _155
REMARK   64  A    between atoms: _158  and  _160
REMARK   65  A    between atoms: _160  and  _161
REMARK   66  A    between atoms: _160  and  _163
REMARK   67  A    between atoms: _163  and  _164
REMARK   68  A    between atoms: _164  and  _165
REMARK   69  A    between atoms: _165  and  _166
REMARK   70  A    between atoms: _175  and  _177
REMARK   71  A    between atoms: _177  and  _178
REMARK   72  A    between atoms: _177  and  _180
REMARK   73  A    between atoms: _180  and  _181
REMARK   74  A    between atoms: _181  and  _182
REMARK   75  A    between atoms: _184  and  _186
REMARK   76  A    between atoms: _186  and  _187
REMARK   77  A    between atoms: _186  and  _189
REMARK   78  A    between atoms: _192  and  _194
REMARK   79  A    between atoms: _194  and  _195
REMARK   80  A    between atoms: _194  and  _197
REMARK   81  A    between atoms: _197  and  _198
REMARK   82  A    between atoms: _201  and  _203
REMARK   83  A    between atoms: _203  and  _204
REMARK   84  A    between atoms: _203  and  _206
REMARK   85  A    between atoms: _206  and  _207
REMARK   86  A    between atoms: _210  and  _212
REMARK   87  A    between atoms: _212  and  _213
REMARK   88  A    between atoms: _212  and  _215
REMARK   89  A    between atoms: _215  and  _216
REMARK   90  A    between atoms: _216  and  _217
REMARK   91  A    between atoms: _220  and  _222
REMARK   92  A    between atoms: _222  and  _223
REMARK   93  A    between atoms: _226  and  _227
REMARK   94  A    between atoms: _232  and  _234
REMARK   95  A    between atoms: _234  and  _235
REMARK   96  A    between atoms: _234  and  _237
REMARK   97  A    between atoms: _237  and  _238
REMARK   98  A    between atoms: _238  and  _239
REMARK   99  A    between atoms: _239  and  _240
REMARK  100  A    between atoms: _249  and  _251
REMARK  101  A    between atoms: _251  and  _252
REMARK  102  A    between atoms: _251  and  _254
REMARK  103  A    between atoms: _254  and  _255
REMARK  104  A    between atoms: _261  and  _263
REMARK  105  A    between atoms: _263  and  _264
REMARK  106  A    between atoms: _263  and  _266
REMARK  107  A    between atoms: _266  and  _267
REMARK  108  A    between atoms: _269  and  _271
REMARK  109  A    between atoms: _271  and  _272
REMARK  110  A    between atoms: _271  and  _274
REMARK  111  A    between atoms: _274  and  _275
REMARK  112  A    between atoms: _277  and  _279
REMARK  113  A    between atoms: _279  and  _280
REMARK  114  A    between atoms: _279  and  _282
REMARK  115  A    between atoms: _282  and  _283
REMARK  116  A    between atoms: _289  and  _291
REMARK  117  A    between atoms: _291  and  _292
REMARK  118  A    between atoms: _291  and  _294
REMARK  119  A    between atoms: _297  and  _299
REMARK  120  A    between atoms: _299  and  _300
REMARK  121  A    between atoms: _299  and  _302
REMARK  122  A    between atoms: _302  and  _303
REMARK  123  A    between atoms: _306  and  _308
REMARK  124  A    between atoms: _308  and  _309
REMARK  125  A    between atoms: _308  and  _311
REMARK  126  A    between atoms: _311  and  _312
REMARK  127  A    between atoms: _317  and  _319
REMARK  128  A    between atoms: _319  and  _320
REMARK  129  A    between atoms: _319  and  _322
REMARK  130  A    between atoms: _322  and  _323
REMARK  131  A    between atoms: _323  and  _324
REMARK  132  A    between atoms: _326  and  _328
REMARK  133  A    between atoms: _328  and  _329
REMARK  134  A    between atoms: _328  and  _331
REMARK  135  A    between atoms: _331  and  _332
REMARK  136  A    between atoms: _335  and  _337
REMARK  137  A    between atoms: _337  and  _338
REMARK  138  A    between atoms: _337  and  _340
REMARK  139  A    between atoms: _340  and  _341
REMARK  140  A    between atoms: _344  and  _346
REMARK  141  A    between atoms: _346  and  _347
REMARK  142  A    between atoms: _346  and  _349
REMARK  143  A    between atoms: _352  and  _354
REMARK  144  A    between atoms: _354  and  _355
REMARK  145  A    between atoms: _354  and  _357
REMARK  146  A    between atoms: _357  and  _358
REMARK  147  A    between atoms: _358  and  _359
REMARK  148  A    between atoms: _361  and  _363
REMARK  149  A    between atoms: _363  and  _364
REMARK  150  A    between atoms: _367  and  _369
REMARK  151  A    between atoms: _369  and  _370
REMARK  152  A    between atoms: _369  and  _372
REMARK  153  A    between atoms: _372  and  _373
REMARK  154  A    between atoms: _376  and  _378
REMARK  155  A    between atoms: _378  and  _379
REMARK  156  A    between atoms: _378  and  _381
REMARK  157  A    between atoms: _381  and  _382
REMARK  158  A    between atoms: _385  and  _387
REMARK  159  A    between atoms: _387  and  _388
REMARK  160  A    between atoms: _387  and  _390
REMARK  161  A    between atoms: _390  and  _391
REMARK  162  A    between atoms: _396  and  _397
REMARK  163  A    between atoms: _399  and  _401
REMARK  164  A    between atoms: _401  and  _402
REMARK  165  A    between atoms: _401  and  _404
REMARK  166  A    between atoms: _404  and  _405
REMARK  167  A    between atoms: _408  and  _410
REMARK  168  A    between atoms: _410  and  _411
REMARK  169  A    between atoms: _410  and  _413
REMARK  170  A    between atoms: _415  and  _417
REMARK  171  A    between atoms: _417  and  _418
REMARK  172  A    between atoms: _417  and  _420
REMARK  173  A    between atoms: _420  and  _421
REMARK  174  A    between atoms: _431  and  _433
REMARK  175  A    between atoms: _433  and  _434
REMARK  176  A    between atoms: _437  and  _439
REMARK  177  A    between atoms: _439  and  _440
REMARK  178  A    between atoms: _439  and  _442
REMARK  179  A    between atoms: _445  and  _447
REMARK  180  A    between atoms: _447  and  _448
REMARK  181  A    between atoms: _447  and  _450
REMARK  182  A    between atoms: _450  and  _451
REMARK  183  A    between atoms: _453  and  _455
REMARK  184  A    between atoms: _455  and  _456
REMARK  185  A    between atoms: _455  and  _458
REMARK  186  A    between atoms: _461  and  _463
REMARK  187  A    between atoms: _463  and  _464
REMARK  188  A    between atoms: _463  and  _466
REMARK  189  A    between atoms: _466  and  _467
REMARK  190  A    between atoms: _470  and  _472
REMARK  191  A    between atoms: _472  and  _473
REMARK  192  A    between atoms: _472  and  _475
REMARK  193  A    between atoms: _475  and  _476
REMARK  194  A    between atoms: _476  and  _477
REMARK  195  A    between atoms: _477  and  _478
REMARK  196  A    between atoms: _487  and  _489
REMARK  197  A    between atoms: _489  and  _490
REMARK  198  A    between atoms: _489  and  _492
REMARK  199  A    between atoms: _495  and  _497
REMARK  200  A    between atoms: _497  and  _498
REMARK  201  A    between atoms: _497  and  _500
REMARK  202  A    between atoms: _500  and  _501
REMARK  203  A    between atoms: _504  and  _506
REMARK  204  A    between atoms: _506  and  _507
REMARK  205  A    between atoms: _506  and  _509
REMARK  206  A    between atoms: _509  and  _510
REMARK  207  A    between atoms: _513  and  _515
REMARK  208  A    between atoms: _515  and  _516
REMARK  209  A    between atoms: _515  and  _518
REMARK  210  A    between atoms: _521  and  _523
REMARK  211  A    between atoms: _523  and  _524
REMARK  212  A    between atoms: _523  and  _526
REMARK  213  A    between atoms: _528  and  _530
REMARK  214  A    between atoms: _530  and  _531
REMARK  215  A    between atoms: _530  and  _533
REMARK  216  A    between atoms: _533  and  _534
REMARK  217  A    between atoms: _539  and  _541
REMARK  218  A    between atoms: _541  and  _542
REMARK  219  A    between atoms: _541  and  _544
REMARK  220  A    between atoms: _544  and  _545
REMARK  221  A    between atoms: _547  and  _549
REMARK  222  A    between atoms: _549  and  _550
REMARK  223  A    between atoms: _549  and  _552
REMARK  224  A    between atoms: _552  and  _553
REMARK                            x       y       z     vdW  Elec       q    Type
REMARK                         _______ _______ _______ _____ _____    ______ ____
ROOT
ATOM      1  NE  ARG A   1      64.219  26.463  35.319  0.00  0.00    -0.265 N 
ATOM      2  HE  ARG A   1      63.313  26.887  35.604  0.00  0.00    +0.259 HD
ATOM      3  CZ  ARG A   1      64.189  25.321  34.645  0.00  0.00    +0.342 C 
ATOM      4  NH2 ARG A   1      63.025  24.752  34.348  0.00  0.00    -0.292 N 
ATOM      5 HH21 ARG A   1      62.136  25.202  34.644  0.00  0.00    +0.255 HD
ATOM      6 HH22 ARG A   1      63.004  23.857  33.819  0.00  0.00    +0.255 HD
ATOM      7  NH1 ARG A   1      65.328  24.750  34.268  0.00  0.00    -0.292 N 
ATOM      8 HH11 ARG A   1      66.237  25.198  34.502  0.00  0.00    +0.255 HD
ATOM      9 HH12 ARG A   1      65.311  23.855  33.739  0.00  0.00    +0.255 HD
ENDROOT
BRANCH   1  10
ATOM     10  CD  ARG A   1      65.448  27.158  35.683  0.00  0.00    +0.174 C 
BRANCH  10  11
ATOM     11  CG  ARG A   1      65.181  28.263  36.671  0.00  0.00    +0.045 C 
BRANCH  11  12
ATOM     12  CB  ARG A   1      66.441  29.041  36.967  0.00  0.00    +0.029 C 
BRANCH  12  13
ATOM     13  CA  ARG A   1      66.217  30.192  37.943  0.00  0.00    +0.133 C 
BRANCH  13  14
ATOM     14  N   ARG A   1      65.070  30.967  37.509  0.00  0.00    -0.239 NA
ATOM     15  H   ARG A   1      65.122  31.533  36.638  0.00  0.00    +0.142 HD
ENDBRANCH  13  14
BRANCH  13  16
ATOM     16  C   ARG A   1      67.524  30.946  38.106  0.00  0.00    +0.224 C 
ATOM     17  O   ARG A   1      67.947  31.688  37.218  0.00  0.00    -0.287 OA
ENDBRANCH  13  16
ENDBRANCH  12  13
ENDBRANCH  11  12
ENDBRANCH  10  11
ENDBRANCH   1  10
TORSDOF 6
REMARK  Name = ../refined-set-2016/1k27/1k27_pocket.pdb
REMARK  224 active torsions:
REMARK  status: ('A' for Active; 'I' for Inactive)
REMARK    1  A    between atoms: _1  and  _3
REMARK    2  A    between atoms: _3  and  _4
REMARK    3  A    between atoms: _6  and  _8
REMARK    4  A    between atoms: _8  and  _9
REMARK    5  A    between atoms: _8  and  _11
REMARK    6  A    between atoms: _11  and  _12
REMARK    7  A    between atoms: _15  and  _17
REMARK    8  A    between atoms: _17  and  _18
REMARK    9  A    between atoms: _20  and  _22
REMARK   10  A    between atoms: _22  and  _23
REMARK   11  A    between atoms: _22  and  _25
REMARK   12  A    between atoms: _25  and  _26
REMARK   13  A    between atoms: _26  and  _27
REMARK   14  A    between atoms: _27  and  _28
REMARK   15  A    between atoms: _37  and  _39
REMARK   16  A    between atoms: _39  and  _40
REMARK   17  A    between atoms: _39  and  _42
REMARK   18  A    between atoms: _42  and  _43
REMARK   19  A    between atoms: _48  and  _50
REMARK   20  A    between atoms: _50  and  _51
REMARK   21  A    between atoms: _50  and  _53
REMARK   22  A    between atoms: _53  and  _54
REMARK   23  A    between atoms: _59  and  _61
REMARK   24  A    between atoms: _61  and  _62
REMARK   25  A    between atoms: _61  and  _64
REMARK   26  A    between atoms: _64  and  _65
REMARK   27  A    between atoms: _68  and  _70
REMARK   28  A    between atoms: _70  and  _71
REMARK   29  A    between atoms: _70  and  _73
REMARK   30  A    between atoms: _73  and  _74
REMARK   31  A    between atoms: _74  and  _75
REMARK   32  A    between atoms: _78  and  _79
REMARK   33  A    between atoms: _84  and  _86
REMARK   34  A    between atoms: _86  and  _87
REMARK   35  A    between atoms: _86  and  _89
REMARK   36  A    between atoms: _89  and  _90
REMARK   37  A    between atoms: _92  and  _94
REMARK   38  A    between atoms: _94  and  _95
REMARK   39  A    between atoms: _94  and  _97
REMARK   40  A    between atoms: _100  and  _102
REMARK   41  A    between atoms: _102  and  _103
REMARK   42  A    between atoms: _102  and  _105
REMARK   43  A    between atoms: _105  and  _106
REMARK   44  A    between atoms: _111  and  _112
REMARK   45  A    between atoms: _114  and  _116
REMARK   46  A    between atoms: _116  and  _117
REMARK   47  A    between atoms: _116  and  _119
REMARK   48  A    between atoms: _119  and  _120
REMARK   49  A    between atoms: _123  and  _125
REMARK   50  A    between atoms: _125  and  _126
REMARK   51  A    between atoms: _129  and  _131
REMARK   52  A    between atoms: _131  and  _132
REMARK   53  A    between atoms: _131  and  _134
REMARK   54  A    between atoms: _136  and  _138
REMARK   55  A    between atoms: _138  and  _139
REMARK   56  A    between atoms: _141  and  _143
REMARK   57  A    between atoms: _143  and  _144
REMARK   58  A    between atoms: _143  and  _146
REMARK   59  A    between atoms: _146  and  _147
REMARK   60  A    between atoms: _149  and  _151
REMARK   61  A    between atoms: _151  and  _152
REMARK   62  A    between atoms: _151  and  _154
REMARK   63  A    between atoms: _154  and  _155
REMARK   64  A    between atoms: _158  and  _160
REMARK   65  A    between atoms: _160  and  _161
REMARK   66  A    between atoms: _160  and  _163
REMARK   67  A    between atoms: _163  and  _164
REMARK   68  A    between atoms: _164  and  _165
REMARK   69  A    between atoms: _165  and  _166
REMARK   70  A    between atoms: _175  and  _177
REMARK   71  A    between atoms: _177  and  _178
REMARK   72  A    between atoms: _177  and  _180
REMARK   73  A    between atoms: _180  and  _181
REMARK   74  A    between atoms: _181  and  _182
REMARK   75  A    between atoms: _184  and  _186
REMARK   76  A    between atoms: _186  and  _187
REMARK   77  A    between atoms: _186  and  _189
REMARK   78  A    between atoms: _192  and  _194
REMARK   79  A    between atoms: _194  and  _195
REMARK   80  A    between atoms: _194  and  _197
REMARK   81  A    between atoms: _197  and  _198
REMARK   82  A    between atoms: _201  and  _203
REMARK   83  A    between atoms: _203  and  _204
REMARK   84  A    between atoms: _203  and  _206
REMARK   85  A    between atoms: _206  and  _207
REMARK   86  A    between atoms: _210  and  _212
REMARK   87  A    between atoms: _212  and  _213
REMARK   88  A    between atoms: _212  and  _215
REMARK   89  A    between atoms: _215  and  _216
REMARK   90  A    between atoms: _216  and  _217
REMARK   91  A    between atoms: _220  and  _222
REMARK   92  A    between atoms: _222  and  _223
REMARK   93  A    between atoms: _226  and  _227
REMARK   94  A    between atoms: _232  and  _234
REMARK   95  A    between atoms: _234  and  _235
REMARK   96  A    between atoms: _234  and  _237
REMARK   97  A    between atoms: _237  and  _238
REMARK   98  A    between atoms: _238  and  _239
REMARK   99  A    between atoms: _239  and  _240
REMARK  100  A    between atoms: _249  and  _251
REMARK  101  A    between atoms: _251  and  _252
REMARK  102  A    between atoms: _251  and  _254
REMARK  103  A    between atoms: _254  and  _255
REMARK  104  A    between atoms: _261  and  _263
REMARK  105  A    between atoms: _263  and  _264
REMARK  106  A    between atoms: _263  and  _266
REMARK  107  A    between atoms: _266  and  _267
REMARK  108  A    between atoms: _269  and  _271
REMARK  109  A    between atoms: _271  and  _272
REMARK  110  A    between atoms: _271  and  _274
REMARK  111  A    between atoms: _274  and  _275
REMARK  112  A    between atoms: _277  and  _279
REMARK  113  A    between atoms: _279  and  _280
REMARK  114  A    between atoms: _279  and  _282
REMARK  115  A    between atoms: _282  and  _283
REMARK  116  A    between atoms: _289  and  _291
REMARK  117  A    between atoms: _291  and  _292
REMARK  118  A    between atoms: _291  and  _294
REMARK  119  A    between atoms: _297  and  _299
REMARK  120  A    between atoms: _299  and  _300
REMARK  121  A    between atoms: _299  and  _302
REMARK  122  A    between atoms: _302  and  _303
REMARK  123  A    between atoms: _306  and  _308
REMARK  124  A    between atoms: _308  and  _309
REMARK  125  A    between atoms: _308  and  _311
REMARK  126  A    between atoms: _311  and  _312
REMARK  127  A    between atoms: _317  and  _319
REMARK  128  A    between atoms: _319  and  _320
REMARK  129  A    between atoms: _319  and  _322
REMARK  130  A    between atoms: _322  and  _323
REMARK  131  A    between atoms: _323  and  _324
REMARK  132  A    between atoms: _326  and  _328
REMARK  133  A    between atoms: _328  and  _329
REMARK  134  A    between atoms: _328  and  _331
REMARK  135  A    between atoms: _331  and  _332
REMARK  136  A    between atoms: _335  and  _337
REMARK  137  A    between atoms: _337  and  _338
REMARK  138  A    between atoms: _337  and  _340
REMARK  139  A    between atoms: _340  and  _341
REMARK  140  A    between atoms: _344  and  _346
REMARK  141  A    between atoms: _346  and  _347
REMARK  142  A    between atoms: _346  and  _349
REMARK  143  A    between atoms: _352  and  _354
REMARK  144  A    between atoms: _354  and  _355
REMARK  145  A    between atoms: _354  and  _357
REMARK  146  A    between atoms: _357  and  _358
REMARK  147  A    between atoms: _358  and  _359
REMARK  148  A    between atoms: _361  and  _363
REMARK  149  A    between atoms: _363  and  _364
REMARK  150  A    between atoms: _367  and  _369
REMARK  151  A    between atoms: _369  and  _370
REMARK  152  A    between atoms: _369  and  _372
REMARK  153  A    between atoms: _372  and  _373
REMARK  154  A    between atoms: _376  and  _378
REMARK  155  A    between atoms: _378  and  _379
REMARK  156  A    between atoms: _378  and  _381
REMARK  157  A    between atoms: _381  and  _382
REMARK  158  A    between atoms: _385  and  _387
REMARK  159  A    between atoms: _387  and  _388
REMARK  160  A    between atoms: _387  and  _390
REMARK  161  A    between atoms: _390  and  _391
REMARK  162  A    between atoms: _396  and  _397
REMARK  163  A    between atoms: _399  and  _401
REMARK  164  A    between atoms: _401  and  _402
REMARK  165  A    between atoms: _401  and  _404
REMARK  166  A    between atoms: _404  and  _405
REMARK  167  A    between atoms: _408  and  _410
REMARK  168  A    between atoms: _410  and  _411
REMARK  169  A    between atoms: _410  and  _413
REMARK  170  A    between atoms: _415  and  _417
REMARK  171  A    between atoms: _417  and  _418
REMARK  172  A    between atoms: _417  and  _420
REMARK  173  A    between atoms: _420  and  _421
REMARK  174  A    between atoms: _431  and  _433
REMARK  175  A    between atoms: _433  and  _434
REMARK  176  A    between atoms: _437  and  _439
REMARK  177  A    between atoms: _439  and  _440
REMARK  178  A    between atoms: _439  and  _442
REMARK  179  A    between atoms: _445  and  _447
REMARK  180  A    between atoms: _447  and  _448
REMARK  181  A    between atoms: _447  and  _450
REMARK  182  A    between atoms: _450  and  _451
REMARK  183  A    between atoms: _453  and  _455
REMARK  184  A    between atoms: _455  and  _456
REMARK  185  A    between atoms: _455  and  _458
REMARK  186  A    between atoms: _461  and  _463
REMARK  187  A    between atoms: _463  and  _464
REMARK  188  A    between atoms: _463  and  _466
REMARK  189  A    between atoms: _466  and  _467
REMARK  190  A    between atoms: _470  and  _472
REMARK  191  A    between atoms: _472  and  _473
REMARK  192  A    between atoms: _472  and  _475
REMARK  193  A    between atoms: _475  and  _476
REMARK  194  A    between atoms: _476  and  _477
REMARK  195  A    between atoms: _477  and  _478
REMARK  196  A    between atoms: _487  and  _489
REMARK  197  A    between atoms: _489  and  _490
REMARK  198  A    between atoms: _489  and  _492
REMARK  199  A    between atoms: _495  and  _497
REMARK  200  A    between atoms: _497  and  _498
REMARK  201  A    between atoms: _497  and  _500
REMARK  202  A    between atoms: _500  and  _501
REMARK  203  A    between atoms: _504  and  _506
REMARK  204  A    between atoms: _506  and  _507
REMARK  205  A    between atoms: _506  and  _509
REMARK  206  A    between atoms: _509  and  _510
REMARK  207  A    between atoms: _513  and  _515
REMARK  208  A    between atoms: _515  and  _516
REMARK  209  A    between atoms: _515  and  _518
REMARK  210  A    between atoms: _521  and  _523
REMARK  211  A    between atoms: _523  and  _524
REMARK  212  A    between atoms: _523  and  _526
REMARK  213  A    between atoms: _528  and  _530
REMARK  214  A    between atoms: _530  and  _531
REMARK  215  A    between atoms: _530  and  _533
REMARK  216  A    between atoms: _533  and  _534
REMARK  217  A    between atoms: _539  and  _541
REMARK  218  A    between atoms: _541  and  _542
REMARK  219  A    between atoms: _541  and  _544
REMARK  220  A    between atoms: _544  and  _545
REMARK  221  A    between atoms: _547  and  _549
REMARK  222  A    between atoms: _549  and  _550
REMARK  223  A    between atoms: _549  and  _552
REMARK  224  A    between atoms: _552  and  _553
REMARK                            x       y       z     vdW  Elec       q    Type
REMARK                         _______ _______ _______ _____ _____    ______ ____
ROOT
ATOM      1  C   GLU A   5      59.795  25.573  33.008  0.00  0.00    +0.241 C 
ATOM      2  O   GLU A   5      60.222  24.886  33.937  0.00  0.00    -0.273 OA
ATOM      3  N   GLY A   6      58.677  25.281  32.352  0.00  0.00    -0.295 N 
ATOM      4  H   GLY A   6      58.372  25.876  31.556  0.00  0.00    +0.150 HD
ENDROOT
BRANCH   3   5
ATOM      5  CA  GLY A   6      57.882  24.134  32.745  0.00  0.00    +0.176 C 
BRANCH   5   6
ATOM      6  C   GLY A   6      57.118  24.477  34.011  0.00  0.00    +0.246 C 
ATOM      7  N   PRO A   7      56.533  23.488  34.702  0.00  0.00    -0.272 N 
ATOM      8  CD  PRO A   7      55.845  23.703  35.988  0.00  0.00    +0.094 C 
ATOM      9  CG  PRO A   7      55.170  22.362  36.234  0.00  0.00    +0.024 C 
ATOM     10  CB  PRO A   7      56.162  21.393  35.663  0.00  0.00    +0.031 C 
ATOM     11  CA  PRO A   7      56.558  22.067  34.354  0.00  0.00    +0.152 C 
ATOM     12  O   GLY A   6      57.066  25.646  34.394  0.00  0.00    -0.273 OA
BRANCH  11  13
ATOM     13  C   PRO A   7      55.626  21.711  33.191  0.00  0.00    +0.241 C 
ATOM     14  N   ARG A   8      54.783  22.655  32.785  0.00  0.00    -0.297 N 
ATOM     15  H   ARG A   8      54.779  23.578  33.263  0.00  0.00    +0.150 HD
ATOM     16  O   PRO A   7      55.674  20.601  32.668  0.00  0.00    -0.273 OA
BRANCH  14  17
ATOM     17  CA  ARG A   8      53.862  22.415  31.677  0.00  0.00    +0.149 C 
BRANCH  17  18
ATOM     18  C   ARG A   8      54.629  22.253  30.372  0.00  0.00    +0.241 C 
ATOM     19  O   ARG A   8      55.726  22.792  30.221  0.00  0.00    -0.273 OA
ATOM     20  N   PHE A   9      54.053  21.503  29.435  0.00  0.00    -0.297 N 
ATOM     21  H   PHE A   9      53.156  21.020  29.644  0.00  0.00    +0.150 HD
BRANCH  20  22
ATOM     22  CA  PHE A   9      54.661  21.351  28.124  0.00  0.00    +0.153 C 
BRANCH  22  23
ATOM     23  C   PHE A   9      54.250  22.619  27.370  0.00  0.00    +0.241 C 
ATOM     24  O   PHE A   9      53.394  23.368  27.844  0.00  0.00    -0.273 OA
ATOM     25  N   SER A  10      54.847  22.852  26.207  0.00  0.00    -0.296 N 
ATOM     26  H   SER A  10      55.547  22.168  25.855  0.00  0.00    +0.150 HD
BRANCH  25  27
ATOM     27  CA  SER A  10      54.552  24.039  25.406  0.00  0.00    +0.166 C 
BRANCH  27  28
ATOM     28  CB  SER A  10      53.222  23.951  24.662  0.00  0.00    +0.229 C 
ATOM     29  OG  SER A  10      52.705  22.861  24.400  0.00  0.00    -0.286 OA
ENDBRANCH  27  28
BRANCH  27  30
ATOM     30  C   SER A  10      55.662  24.266  24.369  0.00  0.00    +0.165 C 
BRANCH  30  31
ATOM     31  O   SER A  10      56.954  24.260  24.957  0.00  0.00    -0.380 OA
ATOM     32  H   SER A  10      57.113  23.385  25.392  0.00  0.00    +0.211 HD
ENDBRANCH  30  31
ENDBRANCH  27  30
ENDBRANCH  25  27
ENDBRANCH  22  23
BRANCH  22  33
ATOM     33  CB  PHE A   9      54.115  20.112  27.408  0.00  0.00    +0.055 C 
BRANCH  33  34
ATOM     34  CG  PHE A   9      54.681  18.818  27.922  0.00  0.00    -0.020 A 
ATOM     35  CD2 PHE A   9      53.865  17.896  28.571  0.00  0.00    -0.004 A 
ATOM     36  CE2 PHE A   9      54.385  16.682  29.043  0.00  0.00    -0.000 A 
ATOM     37  CZ  PHE A   9      55.735  16.388  28.863  0.00  0.00    -0.000 A 
ATOM     38  CE1 PHE A   9      56.564  17.309  28.213  0.00  0.00    -0.000 A 
ATOM     39  CD1 PHE A   9      56.030  18.516  27.748  0.00  0.00    -0.004 A 
ENDBRANCH  33  34
ENDBRANCH  22  33
ENDBRANCH  20  22
ENDBRANCH  17  18
BRANCH  17  40
ATOM     40  CB  ARG A   8      52.906  23.601  31.510  0.00  0.00    +0.033 C 
BRANCH  40  41
ATOM     41  CG  ARG A   8      53.604  24.873  31.020  0.00  0.00    +0.045 C 
BRANCH  41  42
ATOM     42  CD  ARG A   8      52.620  26.013  30.760  0.00  0.00    +0.174 C 
BRANCH  42  43
ATOM     43  NE  ARG A   8      53.287  27.228  30.286  0.00  0.00    -0.265 N 
ATOM     44  HE  ARG A   8      53.509  27.960  30.990  0.00  0.00    +0.259 HD
ATOM     45  CZ  ARG A   8      53.630  27.465  29.022  0.00  0.00    +0.342 C 
ATOM     46  NH2 ARG A   8      54.224  28.612  28.705  0.00  0.00    -0.292 N 
ATOM     47 HH21 ARG A   8      54.418  29.318  29.443  0.00  0.00    +0.255 HD
ATOM     48 HH22 ARG A   8      54.494  28.803  27.719  0.00  0.00    +0.255 HD
ATOM     49  NH1 ARG A   8      53.374  26.573  28.070  0.00  0.00    -0.292 N 
ATOM     50 HH11 ARG A   8      52.901  25.678  28.309  0.00  0.00    +0.255 HD
ATOM     51 HH12 ARG A   8      53.647  26.770  27.086  0.00  0.00    +0.255 HD
ENDBRANCH  42  43
ENDBRANCH  41  42
ENDBRANCH  40  41
ENDBRANCH  17  40
ENDBRANCH  14  17
ENDBRANCH  11  13
ENDBRANCH   5   6
ENDBRANCH   3   5
BRANCH   1  52
ATOM     52  CA  GLU A   5      60.550  26.811  32.542  0.00  0.00    +0.149 C 
BRANCH  52  54
ATOM     53  C   ILE A   4      61.376  25.970  30.418  0.00  0.00    +0.241 C 
ATOM     54  N   GLU A   5      60.669  26.874  31.089  0.00  0.00    -0.297 N 
ATOM     55  H   GLU A   5      60.193  27.639  30.570  0.00  0.00    +0.150 HD
ATOM     56  O   ILE A   4      61.952  25.031  30.969  0.00  0.00    -0.273 OA
BRANCH  53  57
ATOM     57  CA  ILE A   4      61.452  26.152  28.907  0.00  0.00    +0.149 C 
BRANCH  57  60
ATOM     58  C   THR A   3      63.771  26.039  28.186  0.00  0.00    +0.243 C 
ATOM     59  O   THR A   3      63.963  27.234  28.414  0.00  0.00    -0.273 OA
ATOM     60  N   ILE A   4      62.606  25.437  28.386  0.00  0.00    -0.297 N 
ATOM     61  H   ILE A   4      62.515  24.425  28.164  0.00  0.00    +0.150 HD
BRANCH  58  62
ATOM     62  CA  THR A   3      64.887  25.162  27.639  0.00  0.00    +0.176 C 
BRANCH  62  64
ATOM     63  C   VAL A   2      64.969  24.924  25.220  0.00  0.00    +0.241 C 
ATOM     64  N   THR A   3      65.279  25.617  26.311  0.00  0.00    -0.295 N 
ATOM     65  H   THR A   3      65.813  26.504  26.215  0.00  0.00    +0.150 HD
ATOM     66  O   VAL A   2      64.371  23.850  25.260  0.00  0.00    -0.273 OA
BRANCH  63  67
ATOM     67  CA  VAL A   2      65.446  25.501  23.890  0.00  0.00    +0.148 C 
BRANCH  67  70
ATOM     68  C   MET A   1      67.464  24.317  23.355  0.00  0.00    +0.238 C 
ATOM     69  O   MET A   1      68.139  25.190  23.897  0.00  0.00    -0.274 OA
ATOM     70  N   VAL A   2      66.143  24.398  23.247  0.00  0.00    -0.297 N 
ATOM     71  H   VAL A   2      65.614  23.682  22.710  0.00  0.00    +0.150 HD
BRANCH  68  72
ATOM     72  CA  MET A   1      68.138  23.102  22.750  0.00  0.00    +0.146 C 
BRANCH  72  73
ATOM     73  N   MET A   1      69.142  23.482  21.765  0.00  0.00    -0.238 NA
ATOM     74  H   MET A   1      70.101  23.728  22.083  0.00  0.00    +0.142 HD
ENDBRANCH  72  73
BRANCH  72  75
ATOM     75  CB  MET A   1      68.791  22.296  23.879  0.00  0.00    +0.038 C 
BRANCH  75  76
ATOM     76  CG  MET A   1      67.865  21.923  25.023  0.00  0.00    +0.060 C 
BRANCH  76  77
ATOM     77  SD  MET A   1      66.742  20.584  24.576  0.00  0.00    -0.139 S 
ATOM     78  CE  MET A   1      67.853  19.164  24.638  0.00  0.00    +0.069 C 
ENDBRANCH  76  77
ENDBRANCH  75  76
ENDBRANCH  72  75
ENDBRANCH  68  72
ENDBRANCH  67  70
BRANCH  67  79
ATOM     79  CB  VAL A   2      64.242  26.033  23.056  0.00  0.00    +0.027 C 
ATOM     80  CG2 VAL A   2      63.531  27.125  23.844  0.00  0.00    +0.002 C 
ATOM     81  CG1 VAL A   2      63.265  24.907  22.712  0.00  0.00    +0.002 C 
ENDBRANCH  67  79
ENDBRANCH  63  67
ENDBRANCH  62  64
BRANCH  62  82
ATOM     82  CB  THR A   3      66.079  25.204  28.626  0.00  0.00    +0.137 C 
ATOM     83  CG2 THR A   3      65.630  24.780  30.031  0.00  0.00    +0.034 C 
BRANCH  82  84
ATOM     84  OG1 THR A   3      67.107  24.314  28.172  0.00  0.00    -0.382 OA
ATOM     85  HG1 THR A   3      66.748  23.393  28.127  0.00  0.00    +0.210 HD
ENDBRANCH  82  84
ENDBRANCH  62  82
ENDBRANCH  58  62
ENDBRANCH  57  60
BRANCH  57  86
ATOM     86  CB  ILE A   4      60.146  25.648  28.243  0.00  0.00    +0.027 C 
ATOM     87  CG2 ILE A   4      60.239  25.854  26.732  0.00  0.00    +0.002 C 
BRANCH  86  88
ATOM     88  CG1 ILE A   4      59.919  24.168  28.565  0.00  0.00    +0.002 C 
ATOM     89  CD1 ILE A   4      58.675  23.560  27.907  0.00  0.00    +0.000 C 
ENDBRANCH  86  88
ENDBRANCH  57  86
ENDBRANCH  53  57
ENDBRANCH  52  54
BRANCH  52  90
ATOM     90  CB  GLU A   5      59.854  28.076  33.066  0.00  0.00    +0.041 C 
BRANCH  90  91
ATOM     91  CG  GLU A   5      59.848  28.200  34.590  0.00  0.00    +0.116 C 
BRANCH  91  92
ATOM     92  CD  GLU A   5      61.248  28.159  35.185  0.00  0.00    +0.365 C 
ATOM     93  OE2 GLU A   5      61.507  27.295  36.049  0.00  0.00    -0.246 OA
ATOM     94  OE1 GLU A   5      62.092  28.990  34.794  0.00  0.00    -0.246 OA
ENDBRANCH  91  92
ENDBRANCH  90  91
ENDBRANCH  52  90
ENDBRANCH   1  52
TORSDOF 38
REMARK  Name = ../refined-set-2016/1k27/1k27_pocket.pdb
REMARK  224 active torsions:
REMARK  status: ('A' for Active; 'I' for Inactive)
REMARK    1  A    between atoms: _1  and  _3
REMARK    2  A    between atoms: _3  and  _4
REMARK    3  A    between atoms: _6  and  _8
REMARK    4  A    between atoms: _8  and  _9
REMARK    5  A    between atoms: _8  and  _11
REMARK    6  A    between atoms: _11  and  _12
REMARK    7  A    between atoms: _15  and  _17
REMARK    8  A    between atoms: _17  and  _18
REMARK    9  A    between atoms: _20  and  _22
REMARK   10  A    between atoms: _22  and  _23
REMARK   11  A    between atoms: _22  and  _25
REMARK   12  A    between atoms: _25  and  _26
REMARK   13  A    between atoms: _26  and  _27
REMARK   14  A    between atoms: _27  and  _28
REMARK   15  A    between atoms: _37  and  _39
REMARK   16  A    between atoms: _39  and  _40
REMARK   17  A    between atoms: _39  and  _42
REMARK   18  A    between atoms: _42  and  _43
REMARK   19  A    between atoms: _48  and  _50
REMARK   20  A    between atoms: _50  and  _51
REMARK   21  A    between atoms: _50  and  _53
REMARK   22  A    between atoms: _53  and  _54
REMARK   23  A    between atoms: _59  and  _61
REMARK   24  A    between atoms: _61  and  _62
REMARK   25  A    between atoms: _61  and  _64
REMARK   26  A    between atoms: _64  and  _65
REMARK   27  A    between atoms: _68  and  _70
REMARK   28  A    between atoms: _70  and  _71
REMARK   29  A    between atoms: _70  and  _73
REMARK   30  A    between atoms: _73  and  _74
REMARK   31  A    between atoms: _74  and  _75
REMARK   32  A    between atoms: _78  and  _79
REMARK   33  A    between atoms: _84  and  _86
REMARK   34  A    between atoms: _86  and  _87
REMARK   35  A    between atoms: _86  and  _89
REMARK   36  A    between atoms: _89  and  _90
REMARK   37  A    between atoms: _92  and  _94
REMARK   38  A    between atoms: _94  and  _95
REMARK   39  A    between atoms: _94  and  _97
REMARK   40  A    between atoms: _100  and  _102
REMARK   41  A    between atoms: _102  and  _103
REMARK   42  A    between atoms: _102  and  _105
REMARK   43  A    between atoms: _105  and  _106
REMARK   44  A    between atoms: _111  and  _112
REMARK   45  A    between atoms: _114  and  _116
REMARK   46  A    between atoms: _116  and  _117
REMARK   47  A    between atoms: _116  and  _119
REMARK   48  A    between atoms: _119  and  _120
REMARK   49  A    between atoms: _123  and  _125
REMARK   50  A    between atoms: _125  and  _126
REMARK   51  A    between atoms: _129  and  _131
REMARK   52  A    between atoms: _131  and  _132
REMARK   53  A    between atoms: _131  and  _134
REMARK   54  A    between atoms: _136  and  _138
REMARK   55  A    between atoms: _138  and  _139
REMARK   56  A    between atoms: _141  and  _143
REMARK   57  A    between atoms: _143  and  _144
REMARK   58  A    between atoms: _143  and  _146
REMARK   59  A    between atoms: _146  and  _147
REMARK   60  A    between atoms: _149  and  _151
REMARK   61  A    between atoms: _151  and  _152
REMARK   62  A    between atoms: _151  and  _154
REMARK   63  A    between atoms: _154  and  _155
REMARK   64  A    between atoms: _158  and  _160
REMARK   65  A    between atoms: _160  and  _161
REMARK   66  A    between atoms: _160  and  _163
REMARK   67  A    between atoms: _163  and  _164
REMARK   68  A    between atoms: _164  and  _165
REMARK   69  A    between atoms: _165  and  _166
REMARK   70  A    between atoms: _175  and  _177
REMARK   71  A    between atoms: _177  and  _178
REMARK   72  A    between atoms: _177  and  _180
REMARK   73  A    between atoms: _180  and  _181
REMARK   74  A    between atoms: _181  and  _182
REMARK   75  A    between atoms: _184  and  _186
REMARK   76  A    between atoms: _186  and  _187
REMARK   77  A    between atoms: _186  and  _189
REMARK   78  A    between atoms: _192  and  _194
REMARK   79  A    between atoms: _194  and  _195
REMARK   80  A    between atoms: _194  and  _197
REMARK   81  A    between atoms: _197  and  _198
REMARK   82  A    between atoms: _201  and  _203
REMARK   83  A    between atoms: _203  and  _204
REMARK   84  A    between atoms: _203  and  _206
REMARK   85  A    between atoms: _206  and  _207
REMARK   86  A    between atoms: _210  and  _212
REMARK   87  A    between atoms: _212  and  _213
REMARK   88  A    between atoms: _212  and  _215
REMARK   89  A    between atoms: _215  and  _216
REMARK   90  A    between atoms: _216  and  _217
REMARK   91  A    between atoms: _220  and  _222
REMARK   92  A    between atoms: _222  and  _223
REMARK   93  A    between atoms: _226  and  _227
REMARK   94  A    between atoms: _232  and  _234
REMARK   95  A    between atoms: _234  and  _235
REMARK   96  A    between atoms: _234  and  _237
REMARK   97  A    between atoms: _237  and  _238
REMARK   98  A    between atoms: _238  and  _239
REMARK   99  A    between atoms: _239  and  _240
REMARK  100  A    between atoms: _249  and  _251
REMARK  101  A    between atoms: _251  and  _252
REMARK  102  A    between atoms: _251  and  _254
REMARK  103  A    between atoms: _254  and  _255
REMARK  104  A    between atoms: _261  and  _263
REMARK  105  A    between atoms: _263  and  _264
REMARK  106  A    between atoms: _263  and  _266
REMARK  107  A    between atoms: _266  and  _267
REMARK  108  A    between atoms: _269  and  _271
REMARK  109  A    between atoms: _271  and  _272
REMARK  110  A    between atoms: _271  and  _274
REMARK  111  A    between atoms: _274  and  _275
REMARK  112  A    between atoms: _277  and  _279
REMARK  113  A    between atoms: _279  and  _280
REMARK  114  A    between atoms: _279  and  _282
REMARK  115  A    between atoms: _282  and  _283
REMARK  116  A    between atoms: _289  and  _291
REMARK  117  A    between atoms: _291  and  _292
REMARK  118  A    between atoms: _291  and  _294
REMARK  119  A    between atoms: _297  and  _299
REMARK  120  A    between atoms: _299  and  _300
REMARK  121  A    between atoms: _299  and  _302
REMARK  122  A    between atoms: _302  and  _303
REMARK  123  A    between atoms: _306  and  _308
REMARK  124  A    between atoms: _308  and  _309
REMARK  125  A    between atoms: _308  and  _311
REMARK  126  A    between atoms: _311  and  _312
REMARK  127  A    between atoms: _317  and  _319
REMARK  128  A    between atoms: _319  and  _320
REMARK  129  A    between atoms: _319  and  _322
REMARK  130  A    between atoms: _322  and  _323
REMARK  131  A    between atoms: _323  and  _324
REMARK  132  A    between atoms: _326  and  _328
REMARK  133  A    between atoms: _328  and  _329
REMARK  134  A    between atoms: _328  and  _331
REMARK  135  A    between atoms: _331  and  _332
REMARK  136  A    between atoms: _335  and  _337
REMARK  137  A    between atoms: _337  and  _338
REMARK  138  A    between atoms: _337  and  _340
REMARK  139  A    between atoms: _340  and  _341
REMARK  140  A    between atoms: _344  and  _346
REMARK  141  A    between atoms: _346  and  _347
REMARK  142  A    between atoms: _346  and  _349
REMARK  143  A    between atoms: _352  and  _354
REMARK  144  A    between atoms: _354  and  _355
REMARK  145  A    between atoms: _354  and  _357
REMARK  146  A    between atoms: _357  and  _358
REMARK  147  A    between atoms: _358  and  _359
REMARK  148  A    between atoms: _361  and  _363
REMARK  149  A    between atoms: _363  and  _364
REMARK  150  A    between atoms: _367  and  _369
REMARK  151  A    between atoms: _369  and  _370
REMARK  152  A    between atoms: _369  and  _372
REMARK  153  A    between atoms: _372  and  _373
REMARK  154  A    between atoms: _376  and  _378
REMARK  155  A    between atoms: _378  and  _379
REMARK  156  A    between atoms: _378  and  _381
REMARK  157  A    between atoms: _381  and  _382
REMARK  158  A    between atoms: _385  and  _387
REMARK  159  A    between atoms: _387  and  _388
REMARK  160  A    between atoms: _387  and  _390
REMARK  161  A    between atoms: _390  and  _391
REMARK  162  A    between atoms: _396  and  _397
REMARK  163  A    between atoms: _399  and  _401
REMARK  164  A    between atoms: _401  and  _402
REMARK  165  A    between atoms: _401  and  _404
REMARK  166  A    between atoms: _404  and  _405
REMARK  167  A    between atoms: _408  and  _410
REMARK  168  A    between atoms: _410  and  _411
REMARK  169  A    between atoms: _410  and  _413
REMARK  170  A    between atoms: _415  and  _417
REMARK  171  A    between atoms: _417  and  _418
REMARK  172  A    between atoms: _417  and  _420
REMARK  173  A    between atoms: _420  and  _421
REMARK  174  A    between atoms: _431  and  _433
REMARK  175  A    between atoms: _433  and  _434
REMARK  176  A    between atoms: _437  and  _439
REMARK  177  A    between atoms: _439  and  _440
REMARK  178  A    between atoms: _439  and  _442
REMARK  179  A    between atoms: _445  and  _447
REMARK  180  A    between atoms: _447  and  _448
REMARK  181  A    between atoms: _447  and  _450
REMARK  182  A    between atoms: _450  and  _451
REMARK  183  A    between atoms: _453  and  _455
REMARK  184  A    between atoms: _455  and  _456
REMARK  185  A    between atoms: _455  and  _458
REMARK  186  A    between atoms: _461  and  _463
REMARK  187  A    between atoms: _463  and  _464
REMARK  188  A    between atoms: _463  and  _466
REMARK  189  A    between atoms: _466  and  _467
REMARK  190  A    between atoms: _470  and  _472
REMARK  191  A    between atoms: _472  and  _473
REMARK  192  A    between atoms: _472  and  _475
REMARK  193  A    between atoms: _475  and  _476
REMARK  194  A    between atoms: _476  and  _477
REMARK  195  A    between atoms: _477  and  _478
REMARK  196  A    between atoms: _487  and  _489
REMARK  197  A    between atoms: _489  and  _490
REMARK  198  A    between atoms: _489  and  _492
REMARK  199  A    between atoms: _495  and  _497
REMARK  200  A    between atoms: _497  and  _498
REMARK  201  A    between atoms: _497  and  _500
REMARK  202  A    between atoms: _500  and  _501
REMARK  203  A    between atoms: _504  and  _506
REMARK  204  A    between atoms: _506  and  _507
REMARK  205  A    between atoms: _506  and  _509
REMARK  206  A    between atoms: _509  and  _510
REMARK  207  A    between atoms: _513  and  _515
REMARK  208  A    between atoms: _515  and  _516
REMARK  209  A    between atoms: _515  and  _518
REMARK  210  A    between atoms: _521  and  _523
REMARK  211  A    between atoms: _523  and  _524
REMARK  212  A    between atoms: _523  and  _526
REMARK  213  A    between atoms: _528  and  _530
REMARK  214  A    between atoms: _530  and  _531
REMARK  215  A    between atoms: _530  and  _533
REMARK  216  A    between atoms: _533  and  _534
REMARK  217  A    between atoms: _539  and  _541
REMARK  218  A    between atoms: _541  and  _542
REMARK  219  A    between atoms: _541  and  _544
REMARK  220  A    between atoms: _544  and  _545
REMARK  221  A    between atoms: _547  and  _549
REMARK  222  A    between atoms: _549  and  _550
REMARK  223  A    between atoms: _549  and  _552
REMARK  224  A    between atoms: _552  and  _553
REMARK                            x       y       z     vdW  Elec       q    Type
REMARK                         _______ _______ _______ _____ _____    ______ ____
ROOT
ATOM      1  CA  SER A   1      56.212  24.951  19.640  0.00  0.00    +0.163 C 
ENDROOT
BRANCH   1   2
ATOM      2  N   SER A   1      55.447  25.982  20.335  0.00  0.00    -0.237 NA
ATOM      3  H   SER A   1      54.501  25.752  20.700  0.00  0.00    +0.142 HD
ENDBRANCH   1   2
BRANCH   1   4
ATOM      4  C   SER A   1      56.611  25.437  18.246  0.00  0.00    +0.227 C 
ATOM      5  O   SER A   1      57.784  25.378  17.862  0.00  0.00    -0.287 OA
ENDBRANCH   1   4
BRANCH   1   6
ATOM      6  CB  SER A   1      55.379  23.668  19.537  0.00  0.00    +0.162 C 
BRANCH   6   7
ATOM      7  OG  SER A   1      56.190  22.564  19.183  0.00  0.00    -0.380 OA
ATOM      8  H   SER A   1      56.889  22.435  19.872  0.00  0.00    +0.211 HD
ENDBRANCH   6   7
ENDBRANCH   1   6
TORSDOF 4
REMARK  Name = ../refined-set-2016/1k27/1k27_pocket.pdb
REMARK  224 active torsions:
REMARK  status: ('A' for Active; 'I' for Inactive)
REMARK    1  A    between atoms: _1  and  _3
REMARK    2  A    between atoms: _3  and  _4
REMARK    3  A    between atoms: _6  and  _8
REMARK    4  A    between atoms: _8  and  _9
REMARK    5  A    between atoms: _8  and  _11
REMARK    6  A    between atoms: _11  and  _12
REMARK    7  A    between atoms: _15  and  _17
REMARK    8  A    between atoms: _17  and  _18
REMARK    9  A    between atoms: _20  and  _22
REMARK   10  A    between atoms: _22  and  _23
REMARK   11  A    between atoms: _22  and  _25
REMARK   12  A    between atoms: _25  and  _26
REMARK   13  A    between atoms: _26  and  _27
REMARK   14  A    between atoms: _27  and  _28
REMARK   15  A    between atoms: _37  and  _39
REMARK   16  A    between atoms: _39  and  _40
REMARK   17  A    between atoms: _39  and  _42
REMARK   18  A    between atoms: _42  and  _43
REMARK   19  A    between atoms: _48  and  _50
REMARK   20  A    between atoms: _50  and  _51
REMARK   21  A    between atoms: _50  and  _53
REMARK   22  A    between atoms: _53  and  _54
REMARK   23  A    between atoms: _59  and  _61
REMARK   24  A    between atoms: _61  and  _62
REMARK   25  A    between atoms: _61  and  _64
REMARK   26  A    between atoms: _64  and  _65
REMARK   27  A    between atoms: _68  and  _70
REMARK   28  A    between atoms: _70  and  _71
REMARK   29  A    between atoms: _70  and  _73
REMARK   30  A    between atoms: _73  and  _74
REMARK   31  A    between atoms: _74  and  _75
REMARK   32  A    between atoms: _78  and  _79
REMARK   33  A    between atoms: _84  and  _86
REMARK   34  A    between atoms: _86  and  _87
REMARK   35  A    between atoms: _86  and  _89
REMARK   36  A    between atoms: _89  and  _90
REMARK   37  A    between atoms: _92  and  _94
REMARK   38  A    between atoms: _94  and  _95
REMARK   39  A    between atoms: _94  and  _97
REMARK   40  A    between atoms: _100  and  _102
REMARK   41  A    between atoms: _102  and  _103
REMARK   42  A    between atoms: _102  and  _105
REMARK   43  A    between atoms: _105  and  _106
REMARK   44  A    between atoms: _111  and  _112
REMARK   45  A    between atoms: _114  and  _116
REMARK   46  A    between atoms: _116  and  _117
REMARK   47  A    between atoms: _116  and  _119
REMARK   48  A    between atoms: _119  and  _120
REMARK   49  A    between atoms: _123  and  _125
REMARK   50  A    between atoms: _125  and  _126
REMARK   51  A    between atoms: _129  and  _131
REMARK   52  A    between atoms: _131  and  _132
REMARK   53  A    between atoms: _131  and  _134
REMARK   54  A    between atoms: _136  and  _138
REMARK   55  A    between atoms: _138  and  _139
REMARK   56  A    between atoms: _141  and  _143
REMARK   57  A    between atoms: _143  and  _144
REMARK   58  A    between atoms: _143  and  _146
REMARK   59  A    between atoms: _146  and  _147
REMARK   60  A    between atoms: _149  and  _151
REMARK   61  A    between atoms: _151  and  _152
REMARK   62  A    between atoms: _151  and  _154
REMARK   63  A    between atoms: _154  and  _155
REMARK   64  A    between atoms: _158  and  _160
REMARK   65  A    between atoms: _160  and  _161
REMARK   66  A    between atoms: _160  and  _163
REMARK   67  A    between atoms: _163  and  _164
REMARK   68  A    between atoms: _164  and  _165
REMARK   69  A    between atoms: _165  and  _166
REMARK   70  A    between atoms: _175  and  _177
REMARK   71  A    between atoms: _177  and  _178
REMARK   72  A    between atoms: _177  and  _180
REMARK   73  A    between atoms: _180  and  _181
REMARK   74  A    between atoms: _181  and  _182
REMARK   75  A    between atoms: _184  and  _186
REMARK   76  A    between atoms: _186  and  _187
REMARK   77  A    between atoms: _186  and  _189
REMARK   78  A    between atoms: _192  and  _194
REMARK   79  A    between atoms: _194  and  _195
REMARK   80  A    between atoms: _194  and  _197
REMARK   81  A    between atoms: _197  and  _198
REMARK   82  A    between atoms: _201  and  _203
REMARK   83  A    between atoms: _203  and  _204
REMARK   84  A    between atoms: _203  and  _206
REMARK   85  A    between atoms: _206  and  _207
REMARK   86  A    between atoms: _210  and  _212
REMARK   87  A    between atoms: _212  and  _213
REMARK   88  A    between atoms: _212  and  _215
REMARK   89  A    between atoms: _215  and  _216
REMARK   90  A    between atoms: _216  and  _217
REMARK   91  A    between atoms: _220  and  _222
REMARK   92  A    between atoms: _222  and  _223
REMARK   93  A    between atoms: _226  and  _227
REMARK   94  A    between atoms: _232  and  _234
REMARK   95  A    between atoms: _234  and  _235
REMARK   96  A    between atoms: _234  and  _237
REMARK   97  A    between atoms: _237  and  _238
REMARK   98  A    between atoms: _238  and  _239
REMARK   99  A    between atoms: _239  and  _240
REMARK  100  A    between atoms: _249  and  _251
REMARK  101  A    between atoms: _251  and  _252
REMARK  102  A    between atoms: _251  and  _254
REMARK  103  A    between atoms: _254  and  _255
REMARK  104  A    between atoms: _261  and  _263
REMARK  105  A    between atoms: _263  and  _264
REMARK  106  A    between atoms: _263  and  _266
REMARK  107  A    between atoms: _266  and  _267
REMARK  108  A    between atoms: _269  and  _271
REMARK  109  A    between atoms: _271  and  _272
REMARK  110  A    between atoms: _271  and  _274
REMARK  111  A    between atoms: _274  and  _275
REMARK  112  A    between atoms: _277  and  _279
REMARK  113  A    between atoms: _279  and  _280
REMARK  114  A    between atoms: _279  and  _282
REMARK  115  A    between atoms: _282  and  _283
REMARK  116  A    between atoms: _289  and  _291
REMARK  117  A    between atoms: _291  and  _292
REMARK  118  A    between atoms: _291  and  _294
REMARK  119  A    between atoms: _297  and  _299
REMARK  120  A    between atoms: _299  and  _300
REMARK  121  A    between atoms: _299  and  _302
REMARK  122  A    between atoms: _302  and  _303
REMARK  123  A    between atoms: _306  and  _308
REMARK  124  A    between atoms: _308  and  _309
REMARK  125  A    between atoms: _308  and  _311
REMARK  126  A    between atoms: _311  and  _312
REMARK  127  A    between atoms: _317  and  _319
REMARK  128  A    between atoms: _319  and  _320
REMARK  129  A    between atoms: _319  and  _322
REMARK  130  A    between atoms: _322  and  _323
REMARK  131  A    between atoms: _323  and  _324
REMARK  132  A    between atoms: _326  and  _328
REMARK  133  A    between atoms: _328  and  _329
REMARK  134  A    between atoms: _328  and  _331
REMARK  135  A    between atoms: _331  and  _332
REMARK  136  A    between atoms: _335  and  _337
REMARK  137  A    between atoms: _337  and  _338
REMARK  138  A    between atoms: _337  and  _340
REMARK  139  A    between atoms: _340  and  _341
REMARK  140  A    between atoms: _344  and  _346
REMARK  141  A    between atoms: _346  and  _347
REMARK  142  A    between atoms: _346  and  _349
REMARK  143  A    between atoms: _352  and  _354
REMARK  144  A    between atoms: _354  and  _355
REMARK  145  A    between atoms: _354  and  _357
REMARK  146  A    between atoms: _357  and  _358
REMARK  147  A    between atoms: _358  and  _359
REMARK  148  A    between atoms: _361  and  _363
REMARK  149  A    between atoms: _363  and  _364
REMARK  150  A    between atoms: _367  and  _369
REMARK  151  A    between atoms: _369  and  _370
REMARK  152  A    between atoms: _369  and  _372
REMARK  153  A    between atoms: _372  and  _373
REMARK  154  A    between atoms: _376  and  _378
REMARK  155  A    between atoms: _378  and  _379
REMARK  156  A    between atoms: _378  and  _381
REMARK  157  A    between atoms: _381  and  _382
REMARK  158  A    between atoms: _385  and  _387
REMARK  159  A    between atoms: _387  and  _388
REMARK  160  A    between atoms: _387  and  _390
REMARK  161  A    between atoms: _390  and  _391
REMARK  162  A    between atoms: _396  and  _397
REMARK  163  A    between atoms: _399  and  _401
REMARK  164  A    between atoms: _401  and  _402
REMARK  165  A    between atoms: _401  and  _404
REMARK  166  A    between atoms: _404  and  _405
REMARK  167  A    between atoms: _408  and  _410
REMARK  168  A    between atoms: _410  and  _411
REMARK  169  A    between atoms: _410  and  _413
REMARK  170  A    between atoms: _415  and  _417
REMARK  171  A    between atoms: _417  and  _418
REMARK  172  A    between atoms: _417  and  _420
REMARK  173  A    between atoms: _420  and  _421
REMARK  174  A    between atoms: _431  and  _433
REMARK  175  A    between atoms: _433  and  _434
REMARK  176  A    between atoms: _437  and  _439
REMARK  177  A    between atoms: _439  and  _440
REMARK  178  A    between atoms: _439  and  _442
REMARK  179  A    between atoms: _445  and  _447
REMARK  180  A    between atoms: _447  and  _448
REMARK  181  A    between atoms: _447  and  _450
REMARK  182  A    between atoms: _450  and  _451
REMARK  183  A    between atoms: _453  and  _455
REMARK  184  A    between atoms: _455  and  _456
REMARK  185  A    between atoms: _455  and  _458
REMARK  186  A    between atoms: _461  and  _463
REMARK  187  A    between atoms: _463  and  _464
REMARK  188  A    between atoms: _463  and  _466
REMARK  189  A    between atoms: _466  and  _467
REMARK  190  A    between atoms: _470  and  _472
REMARK  191  A    between atoms: _472  and  _473
REMARK  192  A    between atoms: _472  and  _475
REMARK  193  A    between atoms: _475  and  _476
REMARK  194  A    between atoms: _476  and  _477
REMARK  195  A    between atoms: _477  and  _478
REMARK  196  A    between atoms: _487  and  _489
REMARK  197  A    between atoms: _489  and  _490
REMARK  198  A    between atoms: _489  and  _492
REMARK  199  A    between atoms: _495  and  _497
REMARK  200  A    between atoms: _497  and  _498
REMARK  201  A    between atoms: _497  and  _500
REMARK  202  A    between atoms: _500  and  _501
REMARK  203  A    between atoms: _504  and  _506
REMARK  204  A    between atoms: _506  and  _507
REMARK  205  A    between atoms: _506  and  _509
REMARK  206  A    between atoms: _509  and  _510
REMARK  207  A    between atoms: _513  and  _515
REMARK  208  A    between atoms: _515  and  _516
REMARK  209  A    between atoms: _515  and  _518
REMARK  210  A    between atoms: _521  and  _523
REMARK  211  A    between atoms: _523  and  _524
REMARK  212  A    between atoms: _523  and  _526
REMARK  213  A    between atoms: _528  and  _530
REMARK  214  A    between atoms: _530  and  _531
REMARK  215  A    between atoms: _530  and  _533
REMARK  216  A    between atoms: _533  and  _534
REMARK  217  A    between atoms: _539  and  _541
REMARK  218  A    between atoms: _541  and  _542
REMARK  219  A    between atoms: _541  and  _544
REMARK  220  A    between atoms: _544  and  _545
REMARK  221  A    between atoms: _547  and  _549
REMARK  222  A    between atoms: _549  and  _550
REMARK  223  A    between atoms: _549  and  _552
REMARK  224  A    between atoms: _552  and  _553
REMARK                            x       y       z     vdW  Elec       q    Type
REMARK                         _______ _______ _______ _____ _____    ______ ____
ROOT
ATOM      1  CB  PHE A   1      60.582  26.788  19.866  0.00  0.00    +0.051 C 
ENDROOT
BRANCH   1   2
ATOM      2  CG  PHE A   1      60.009  27.240  21.192  0.00  0.00    -0.020 A 
ATOM      3  CD2 PHE A   1      59.307  26.346  21.998  0.00  0.00    -0.004 A 
ATOM      4  CE2 PHE A   1      58.811  26.733  23.250  0.00  0.00    -0.000 A 
ATOM      5  CZ  PHE A   1      59.016  28.034  23.702  0.00  0.00    -0.000 A 
ATOM      6  CE1 PHE A   1      59.713  28.943  22.905  0.00  0.00    -0.000 A 
ATOM      7  CD1 PHE A   1      60.206  28.542  21.654  0.00  0.00    -0.004 A 
ENDBRANCH   1   2
BRANCH   1   8
ATOM      8  CA  PHE A   1      60.573  27.873  18.783  0.00  0.00    +0.137 C 
BRANCH   8   9
ATOM      9  N   PHE A   1      59.208  28.295  18.489  0.00  0.00    -0.239 NA
ATOM     10  H   PHE A   1      58.410  27.830  18.966  0.00  0.00    +0.142 HD
ENDBRANCH   8   9
BRANCH   8  11
ATOM     11  C   PHE A   1      61.262  27.369  17.519  0.00  0.00    +0.224 C 
ATOM     12  O   PHE A   1      62.470  27.561  17.341  0.00  0.00    -0.287 OA
ENDBRANCH   8  11
ENDBRANCH   1   8
TORSDOF 4
REMARK  Name = ../refined-set-2016/1k27/1k27_pocket.pdb
REMARK  224 active torsions:
REMARK  status: ('A' for Active; 'I' for Inactive)
REMARK    1  A    between atoms: _1  and  _3
REMARK    2  A    between atoms: _3  and  _4
REMARK    3  A    between atoms: _6  and  _8
REMARK    4  A    between atoms: _8  and  _9
REMARK    5  A    between atoms: _8  and  _11
REMARK    6  A    between atoms: _11  and  _12
REMARK    7  A    between atoms: _15  and  _17
REMARK    8  A    between atoms: _17  and  _18
REMARK    9  A    between atoms: _20  and  _22
REMARK   10  A    between atoms: _22  and  _23
REMARK   11  A    between atoms: _22  and  _25
REMARK   12  A    between atoms: _25  and  _26
REMARK   13  A    between atoms: _26  and  _27
REMARK   14  A    between atoms: _27  and  _28
REMARK   15  A    between atoms: _37  and  _39
REMARK   16  A    between atoms: _39  and  _40
REMARK   17  A    between atoms: _39  and  _42
REMARK   18  A    between atoms: _42  and  _43
REMARK   19  A    between atoms: _48  and  _50
REMARK   20  A    between atoms: _50  and  _51
REMARK   21  A    between atoms: _50  and  _53
REMARK   22  A    between atoms: _53  and  _54
REMARK   23  A    between atoms: _59  and  _61
REMARK   24  A    between atoms: _61  and  _62
REMARK   25  A    between atoms: _61  and  _64
REMARK   26  A    between atoms: _64  and  _65
REMARK   27  A    between atoms: _68  and  _70
REMARK   28  A    between atoms: _70  and  _71
REMARK   29  A    between atoms: _70  and  _73
REMARK   30  A    between atoms: _73  and  _74
REMARK   31  A    between atoms: _74  and  _75
REMARK   32  A    between atoms: _78  and  _79
REMARK   33  A    between atoms: _84  and  _86
REMARK   34  A    between atoms: _86  and  _87
REMARK   35  A    between atoms: _86  and  _89
REMARK   36  A    between atoms: _89  and  _90
REMARK   37  A    between atoms: _92  and  _94
REMARK   38  A    between atoms: _94  and  _95
REMARK   39  A    between atoms: _94  and  _97
REMARK   40  A    between atoms: _100  and  _102
REMARK   41  A    between atoms: _102  and  _103
REMARK   42  A    between atoms: _102  and  _105
REMARK   43  A    between atoms: _105  and  _106
REMARK   44  A    between atoms: _111  and  _112
REMARK   45  A    between atoms: _114  and  _116
REMARK   46  A    between atoms: _116  and  _117
REMARK   47  A    between atoms: _116  and  _119
REMARK   48  A    between atoms: _119  and  _120
REMARK   49  A    between atoms: _123  and  _125
REMARK   50  A    between atoms: _125  and  _126
REMARK   51  A    between atoms: _129  and  _131
REMARK   52  A    between atoms: _131  and  _132
REMARK   53  A    between atoms: _131  and  _134
REMARK   54  A    between atoms: _136  and  _138
REMARK   55  A    between atoms: _138  and  _139
REMARK   56  A    between atoms: _141  and  _143
REMARK   57  A    between atoms: _143  and  _144
REMARK   58  A    between atoms: _143  and  _146
REMARK   59  A    between atoms: _146  and  _147
REMARK   60  A    between atoms: _149  and  _151
REMARK   61  A    between atoms: _151  and  _152
REMARK   62  A    between atoms: _151  and  _154
REMARK   63  A    between atoms: _154  and  _155
REMARK   64  A    between atoms: _158  and  _160
REMARK   65  A    between atoms: _160  and  _161
REMARK   66  A    between atoms: _160  and  _163
REMARK   67  A    between atoms: _163  and  _164
REMARK   68  A    between atoms: _164  and  _165
REMARK   69  A    between atoms: _165  and  _166
REMARK   70  A    between atoms: _175  and  _177
REMARK   71  A    between atoms: _177  and  _178
REMARK   72  A    between atoms: _177  and  _180
REMARK   73  A    between atoms: _180  and  _181
REMARK   74  A    between atoms: _181  and  _182
REMARK   75  A    between atoms: _184  and  _186
REMARK   76  A    between atoms: _186  and  _187
REMARK   77  A    between atoms: _186  and  _189
REMARK   78  A    between atoms: _192  and  _194
REMARK   79  A    between atoms: _194  and  _195
REMARK   80  A    between atoms: _194  and  _197
REMARK   81  A    between atoms: _197  and  _198
REMARK   82  A    between atoms: _201  and  _203
REMARK   83  A    between atoms: _203  and  _204
REMARK   84  A    between atoms: _203  and  _206
REMARK   85  A    between atoms: _206  and  _207
REMARK   86  A    between atoms: _210  and  _212
REMARK   87  A    between atoms: _212  and  _213
REMARK   88  A    between atoms: _212  and  _215
REMARK   89  A    between atoms: _215  and  _216
REMARK   90  A    between atoms: _216  and  _217
REMARK   91  A    between atoms: _220  and  _222
REMARK   92  A    between atoms: _222  and  _223
REMARK   93  A    between atoms: _226  and  _227
REMARK   94  A    between atoms: _232  and  _234
REMARK   95  A    between atoms: _234  and  _235
REMARK   96  A    between atoms: _234  and  _237
REMARK   97  A    between atoms: _237  and  _238
REMARK   98  A    between atoms: _238  and  _239
REMARK   99  A    between atoms: _239  and  _240
REMARK  100  A    between atoms: _249  and  _251
REMARK  101  A    between atoms: _251  and  _252
REMARK  102  A    between atoms: _251  and  _254
REMARK  103  A    between atoms: _254  and  _255
REMARK  104  A    between atoms: _261  and  _263
REMARK  105  A    between atoms: _263  and  _264
REMARK  106  A    between atoms: _263  and  _266
REMARK  107  A    between atoms: _266  and  _267
REMARK  108  A    between atoms: _269  and  _271
REMARK  109  A    between atoms: _271  and  _272
REMARK  110  A    between atoms: _271  and  _274
REMARK  111  A    between atoms: _274  and  _275
REMARK  112  A    between atoms: _277  and  _279
REMARK  113  A    between atoms: _279  and  _280
REMARK  114  A    between atoms: _279  and  _282
REMARK  115  A    between atoms: _282  and  _283
REMARK  116  A    between atoms: _289  and  _291
REMARK  117  A    between atoms: _291  and  _292
REMARK  118  A    between atoms: _291  and  _294
REMARK  119  A    between atoms: _297  and  _299
REMARK  120  A    between atoms: _299  and  _300
REMARK  121  A    between atoms: _299  and  _302
REMARK  122  A    between atoms: _302  and  _303
REMARK  123  A    between atoms: _306  and  _308
REMARK  124  A    between atoms: _308  and  _309
REMARK  125  A    between atoms: _308  and  _311
REMARK  126  A    between atoms: _311  and  _312
REMARK  127  A    between atoms: _317  and  _319
REMARK  128  A    between atoms: _319  and  _320
REMARK  129  A    between atoms: _319  and  _322
REMARK  130  A    between atoms: _322  and  _323
REMARK  131  A    between atoms: _323  and  _324
REMARK  132  A    between atoms: _326  and  _328
REMARK  133  A    between atoms: _328  and  _329
REMARK  134  A    between atoms: _328  and  _331
REMARK  135  A    between atoms: _331  and  _332
REMARK  136  A    between atoms: _335  and  _337
REMARK  137  A    between atoms: _337  and  _338
REMARK  138  A    between atoms: _337  and  _340
REMARK  139  A    between atoms: _340  and  _341
REMARK  140  A    between atoms: _344  and  _346
REMARK  141  A    between atoms: _346  and  _347
REMARK  142  A    between atoms: _346  and  _349
REMARK  143  A    between atoms: _352  and  _354
REMARK  144  A    between atoms: _354  and  _355
REMARK  145  A    between atoms: _354  and  _357
REMARK  146  A    between atoms: _357  and  _358
REMARK  147  A    between atoms: _358  and  _359
REMARK  148  A    between atoms: _361  and  _363
REMARK  149  A    between atoms: _363  and  _364
REMARK  150  A    between atoms: _367  and  _369
REMARK  151  A    between atoms: _369  and  _370
REMARK  152  A    between atoms: _369  and  _372
REMARK  153  A    between atoms: _372  and  _373
REMARK  154  A    between atoms: _376  and  _378
REMARK  155  A    between atoms: _378  and  _379
REMARK  156  A    between atoms: _378  and  _381
REMARK  157  A    between atoms: _381  and  _382
REMARK  158  A    between atoms: _385  and  _387
REMARK  159  A    between atoms: _387  and  _388
REMARK  160  A    between atoms: _387  and  _390
REMARK  161  A    between atoms: _390  and  _391
REMARK  162  A    between atoms: _396  and  _397
REMARK  163  A    between atoms: _399  and  _401
REMARK  164  A    between atoms: _401  and  _402
REMARK  165  A    between atoms: _401  and  _404
REMARK  166  A    between atoms: _404  and  _405
REMARK  167  A    between atoms: _408  and  _410
REMARK  168  A    between atoms: _410  and  _411
REMARK  169  A    between atoms: _410  and  _413
REMARK  170  A    between atoms: _415  and  _417
REMARK  171  A    between atoms: _417  and  _418
REMARK  172  A    between atoms: _417  and  _420
REMARK  173  A    between atoms: _420  and  _421
REMARK  174  A    between atoms: _431  and  _433
REMARK  175  A    between atoms: _433  and  _434
REMARK  176  A    between atoms: _437  and  _439
REMARK  177  A    between atoms: _439  and  _440
REMARK  178  A    between atoms: _439  and  _442
REMARK  179  A    between atoms: _445  and  _447
REMARK  180  A    between atoms: _447  and  _448
REMARK  181  A    between atoms: _447  and  _450
REMARK  182  A    between atoms: _450  and  _451
REMARK  183  A    between atoms: _453  and  _455
REMARK  184  A    between atoms: _455  and  _456
REMARK  185  A    between atoms: _455  and  _458
REMARK  186  A    between atoms: _461  and  _463
REMARK  187  A    between atoms: _463  and  _464
REMARK  188  A    between atoms: _463  and  _466
REMARK  189  A    between atoms: _466  and  _467
REMARK  190  A    between atoms: _470  and  _472
REMARK  191  A    between atoms: _472  and  _473
REMARK  192  A    between atoms: _472  and  _475
REMARK  193  A    between atoms: _475  and  _476
REMARK  194  A    between atoms: _476  and  _477
REMARK  195  A    between atoms: _477  and  _478
REMARK  196  A    between atoms: _487  and  _489
REMARK  197  A    between atoms: _489  and  _490
REMARK  198  A    between atoms: _489  and  _492
REMARK  199  A    between atoms: _495  and  _497
REMARK  200  A    between atoms: _497  and  _498
REMARK  201  A    between atoms: _497  and  _500
REMARK  202  A    between atoms: _500  and  _501
REMARK  203  A    between atoms: _504  and  _506
REMARK  204  A    between atoms: _506  and  _507
REMARK  205  A    between atoms: _506  and  _509
REMARK  206  A    between atoms: _509  and  _510
REMARK  207  A    between atoms: _513  and  _515
REMARK  208  A    between atoms: _515  and  _516
REMARK  209  A    between atoms: _515  and  _518
REMARK  210  A    between atoms: _521  and  _523
REMARK  211  A    between atoms: _523  and  _524
REMARK  212  A    between atoms: _523  and  _526
REMARK  213  A    between atoms: _528  and  _530
REMARK  214  A    between atoms: _530  and  _531
REMARK  215  A    between atoms: _530  and  _533
REMARK  216  A    between atoms: _533  and  _534
REMARK  217  A    between atoms: _539  and  _541
REMARK  218  A    between atoms: _541  and  _542
REMARK  219  A    between atoms: _541  and  _544
REMARK  220  A    between atoms: _544  and  _545
REMARK  221  A    between atoms: _547  and  _549
REMARK  222  A    between atoms: _549  and  _550
REMARK  223  A    between atoms: _549  and  _552
REMARK  224  A    between atoms: _552  and  _553
REMARK                            x       y       z     vdW  Elec       q    Type
REMARK                         _______ _______ _______ _____ _____    ______ ____
ROOT
ATOM      1  CA  MET A   4      63.274  21.920  30.826  0.00  0.00    +0.149 C 
ENDROOT
BRANCH   1   3
ATOM      2  C   ASN A   3      63.361  21.425  28.451  0.00  0.00    +0.241 C 
ATOM      3  N   MET A   4      63.480  21.005  29.707  0.00  0.00    -0.297 N 
ATOM      4  H   MET A   4      63.723  20.011  29.895  0.00  0.00    +0.150 HD
ATOM      5  O   ASN A   3      63.091  22.596  28.162  0.00  0.00    -0.273 OA
BRANCH   2   6
ATOM      6  CA  ASN A   3      63.563  20.391  27.350  0.00  0.00    +0.158 C 
BRANCH   6   8
ATOM      7  C   ILE A   2      63.175  20.384  24.946  0.00  0.00    +0.241 C 
ATOM      8  N   ASN A   3      63.610  21.022  26.032  0.00  0.00    -0.297 N 
ATOM      9  H   ASN A   3      63.990  21.986  25.940  0.00  0.00    +0.150 HD
ATOM     10  O   ILE A   2      62.757  19.230  24.973  0.00  0.00    -0.273 OA
BRANCH   7  11
ATOM     11  CA  ILE A   2      63.238  21.156  23.632  0.00  0.00    +0.148 C 
BRANCH  11  13
ATOM     12  C   VAL A   1      64.591  20.961  21.635  0.00  0.00    +0.238 C 
ATOM     13  N   ILE A   2      63.768  20.393  22.509  0.00  0.00    -0.297 N 
ATOM     14  H   ILE A   2      63.499  19.395  22.391  0.00  0.00    +0.150 HD
ATOM     15  O   VAL A   1      64.980  22.128  21.744  0.00  0.00    -0.274 OA
BRANCH  12  16
ATOM     16  CA  VAL A   1      65.046  20.103  20.463  0.00  0.00    +0.145 C 
BRANCH  16  17
ATOM     17  CB  VAL A   1      66.080  19.048  20.932  0.00  0.00    +0.025 C 
ATOM     18  CG2 VAL A   1      67.450  19.694  21.131  0.00  0.00    +0.002 C 
ATOM     19  CG1 VAL A   1      66.175  17.927  19.893  0.00  0.00    +0.002 C 
ENDBRANCH  16  17
BRANCH  16  20
ATOM     20  N   VAL A   1      65.592  20.986  19.439  0.00  0.00    -0.238 NA
ATOM     21  H   VAL A   1      66.200  21.778  19.728  0.00  0.00    +0.142 HD
ENDBRANCH  16  20
ENDBRANCH  12  16
ENDBRANCH  11  13
BRANCH  11  22
ATOM     22  CB  ILE A   2      61.823  21.673  23.270  0.00  0.00    +0.027 C 
ATOM     23  CG2 ILE A   2      60.919  20.508  22.890  0.00  0.00    +0.002 C 
BRANCH  22  24
ATOM     24  CG1 ILE A   2      61.214  22.452  24.433  0.00  0.00    +0.002 C 
ATOM     25  CD1 ILE A   2      59.940  23.189  24.032  0.00  0.00    +0.000 C 
ENDBRANCH  22  24
ENDBRANCH  11  22
ENDBRANCH   7  11
ENDBRANCH   6   8
BRANCH   6  26
ATOM     26  CB  ASN A   3      64.820  19.529  27.604  0.00  0.00    +0.114 C 
BRANCH  26  27
ATOM     27  CG  ASN A   3      66.067  20.340  27.936  0.00  0.00    +0.222 C 
ATOM     28  ND2 ASN A   3      67.173  19.633  28.142  0.00  0.00    -0.329 N 
ATOM     29 HD21 ASN A   3      68.064  20.117  28.375  0.00  0.00    +0.145 HD
ATOM     30 HD22 ASN A   3      67.148  18.596  28.071  0.00  0.00    +0.145 HD
ATOM     31  OD1 ASN A   3      66.045  21.571  28.009  0.00  0.00    -0.275 OA
ENDBRANCH  26  27
ENDBRANCH   6  26
ENDBRANCH   2   6
ENDBRANCH   1   3
BRANCH   1  32
ATOM     32  C   MET A   4      64.460  21.968  31.780  0.00  0.00    +0.241 C 
ATOM     33  O   MET A   4      64.355  22.569  32.850  0.00  0.00    -0.273 OA
ATOM     34  N   THR A   5      65.591  21.380  31.390  0.00  0.00    -0.295 N 
ATOM     35  H   THR A   5      65.658  20.970  30.436  0.00  0.00    +0.150 HD
BRANCH  34  36
ATOM     36  CA  THR A   5      66.736  21.307  32.291  0.00  0.00    +0.176 C 
BRANCH  36  37
ATOM     37  C   THR A   5      68.132  21.732  31.824  0.00  0.00    +0.243 C 
ATOM     38  O   THR A   5      69.030  21.866  32.659  0.00  0.00    -0.273 OA
ATOM     39  N   THR A   6      68.349  21.919  30.524  0.00  0.00    -0.295 N 
ATOM     40  H   THR A   6      67.577  21.792  29.839  0.00  0.00    +0.150 HD
BRANCH  39  41
ATOM     41  CA  THR A   6      69.685  22.305  30.070  0.00  0.00    +0.176 C 
BRANCH  41  42
ATOM     42  C   THR A   6      70.161  23.616  30.703  0.00  0.00    +0.243 C 
ATOM     43  O   THR A   6      71.290  23.701  31.193  0.00  0.00    -0.273 OA
ATOM     44  N   VAL A   7      69.308  24.635  30.694  0.00  0.00    -0.298 N 
ATOM     45  H   VAL A   7      68.379  24.518  30.241  0.00  0.00    +0.150 HD
BRANCH  44  46
ATOM     46  CA  VAL A   7      69.650  25.916  31.308  0.00  0.00    +0.137 C 
BRANCH  46  47
ATOM     47  CB  VAL A   7      69.029  27.101  30.538  0.00  0.00    +0.026 C 
ATOM     48  CG2 VAL A   7      69.472  28.418  31.181  0.00  0.00    +0.002 C 
ATOM     49  CG1 VAL A   7      69.441  27.050  29.073  0.00  0.00    +0.002 C 
ENDBRANCH  46  47
BRANCH  46  50
ATOM     50  C   VAL A   7      69.041  25.882  32.710  0.00  0.00    +0.227 C 
ATOM     51  O   VAL A   7      67.880  25.518  32.864  0.00  0.00    -0.286 OA
ENDBRANCH  46  50
ENDBRANCH  44  46
ENDBRANCH  41  42
BRANCH  41  52
ATOM     52  CB  THR A   6      69.752  22.391  28.530  0.00  0.00    +0.137 C 
ATOM     53  CG2 THR A   6      71.090  22.987  28.075  0.00  0.00    +0.034 C 
BRANCH  52  54
ATOM     54  OG1 THR A   6      69.628  21.067  27.985  0.00  0.00    -0.382 OA
ATOM     55  HG1 THR A   6      70.368  20.502  28.322  0.00  0.00    +0.210 HD
ENDBRANCH  52  54
ENDBRANCH  41  52
ENDBRANCH  39  41
ENDBRANCH  36  37
BRANCH  36  56
ATOM     56  CB  THR A   5      66.890  19.868  32.822  0.00  0.00    +0.137 C 
ATOM     57  CG2 THR A   5      65.623  19.409  33.535  0.00  0.00    +0.034 C 
BRANCH  56  58
ATOM     58  OG1 THR A   5      67.141  18.994  31.714  0.00  0.00    -0.382 OA
ATOM     59  HG1 THR A   5      67.972  19.275  31.255  0.00  0.00    +0.210 HD
ENDBRANCH  56  58
ENDBRANCH  36  56
ENDBRANCH  34  36
ENDBRANCH   1  32
BRANCH   1  60
ATOM     60  CB  MET A   4      62.037  21.489  31.628  0.00  0.00    +0.041 C 
BRANCH  60  61
ATOM     61  CG  MET A   4      60.749  21.404  30.832  0.00  0.00    +0.060 C 
BRANCH  61  62
ATOM     62  SD  MET A   4      59.429  20.609  31.794  0.00  0.00    -0.139 S 
ATOM     63  CE  MET A   4      58.165  20.420  30.539  0.00  0.00    +0.069 C 
ENDBRANCH  61  62
ENDBRANCH  60  61
ENDBRANCH   1  60
TORSDOF 27
REMARK  Name = ../refined-set-2016/1k27/1k27_pocket.pdb
REMARK  224 active torsions:
REMARK  status: ('A' for Active; 'I' for Inactive)
REMARK    1  A    between atoms: _1  and  _3
REMARK    2  A    between atoms: _3  and  _4
REMARK    3  A    between atoms: _6  and  _8
REMARK    4  A    between atoms: _8  and  _9
REMARK    5  A    between atoms: _8  and  _11
REMARK    6  A    between atoms: _11  and  _12
REMARK    7  A    between atoms: _15  and  _17
REMARK    8  A    between atoms: _17  and  _18
REMARK    9  A    between atoms: _20  and  _22
REMARK   10  A    between atoms: _22  and  _23
REMARK   11  A    between atoms: _22  and  _25
REMARK   12  A    between atoms: _25  and  _26
REMARK   13  A    between atoms: _26  and  _27
REMARK   14  A    between atoms: _27  and  _28
REMARK   15  A    between atoms: _37  and  _39
REMARK   16  A    between atoms: _39  and  _40
REMARK   17  A    between atoms: _39  and  _42
REMARK   18  A    between atoms: _42  and  _43
REMARK   19  A    between atoms: _48  and  _50
REMARK   20  A    between atoms: _50  and  _51
REMARK   21  A    between atoms: _50  and  _53
REMARK   22  A    between atoms: _53  and  _54
REMARK   23  A    between atoms: _59  and  _61
REMARK   24  A    between atoms: _61  and  _62
REMARK   25  A    between atoms: _61  and  _64
REMARK   26  A    between atoms: _64  and  _65
REMARK   27  A    between atoms: _68  and  _70
REMARK   28  A    between atoms: _70  and  _71
REMARK   29  A    between atoms: _70  and  _73
REMARK   30  A    between atoms: _73  and  _74
REMARK   31  A    between atoms: _74  and  _75
REMARK   32  A    between atoms: _78  and  _79
REMARK   33  A    between atoms: _84  and  _86
REMARK   34  A    between atoms: _86  and  _87
REMARK   35  A    between atoms: _86  and  _89
REMARK   36  A    between atoms: _89  and  _90
REMARK   37  A    between atoms: _92  and  _94
REMARK   38  A    between atoms: _94  and  _95
REMARK   39  A    between atoms: _94  and  _97
REMARK   40  A    between atoms: _100  and  _102
REMARK   41  A    between atoms: _102  and  _103
REMARK   42  A    between atoms: _102  and  _105
REMARK   43  A    between atoms: _105  and  _106
REMARK   44  A    between atoms: _111  and  _112
REMARK   45  A    between atoms: _114  and  _116
REMARK   46  A    between atoms: _116  and  _117
REMARK   47  A    between atoms: _116  and  _119
REMARK   48  A    between atoms: _119  and  _120
REMARK   49  A    between atoms: _123  and  _125
REMARK   50  A    between atoms: _125  and  _126
REMARK   51  A    between atoms: _129  and  _131
REMARK   52  A    between atoms: _131  and  _132
REMARK   53  A    between atoms: _131  and  _134
REMARK   54  A    between atoms: _136  and  _138
REMARK   55  A    between atoms: _138  and  _139
REMARK   56  A    between atoms: _141  and  _143
REMARK   57  A    between atoms: _143  and  _144
REMARK   58  A    between atoms: _143  and  _146
REMARK   59  A    between atoms: _146  and  _147
REMARK   60  A    between atoms: _149  and  _151
REMARK   61  A    between atoms: _151  and  _152
REMARK   62  A    between atoms: _151  and  _154
REMARK   63  A    between atoms: _154  and  _155
REMARK   64  A    between atoms: _158  and  _160
REMARK   65  A    between atoms: _160  and  _161
REMARK   66  A    between atoms: _160  and  _163
REMARK   67  A    between atoms: _163  and  _164
REMARK   68  A    between atoms: _164  and  _165
REMARK   69  A    between atoms: _165  and  _166
REMARK   70  A    between atoms: _175  and  _177
REMARK   71  A    between atoms: _177  and  _178
REMARK   72  A    between atoms: _177  and  _180
REMARK   73  A    between atoms: _180  and  _181
REMARK   74  A    between atoms: _181  and  _182
REMARK   75  A    between atoms: _184  and  _186
REMARK   76  A    between atoms: _186  and  _187
REMARK   77  A    between atoms: _186  and  _189
REMARK   78  A    between atoms: _192  and  _194
REMARK   79  A    between atoms: _194  and  _195
REMARK   80  A    between atoms: _194  and  _197
REMARK   81  A    between atoms: _197  and  _198
REMARK   82  A    between atoms: _201  and  _203
REMARK   83  A    between atoms: _203  and  _204
REMARK   84  A    between atoms: _203  and  _206
REMARK   85  A    between atoms: _206  and  _207
REMARK   86  A    between atoms: _210  and  _212
REMARK   87  A    between atoms: _212  and  _213
REMARK   88  A    between atoms: _212  and  _215
REMARK   89  A    between atoms: _215  and  _216
REMARK   90  A    between atoms: _216  and  _217
REMARK   91  A    between atoms: _220  and  _222
REMARK   92  A    between atoms: _222  and  _223
REMARK   93  A    between atoms: _226  and  _227
REMARK   94  A    between atoms: _232  and  _234
REMARK   95  A    between atoms: _234  and  _235
REMARK   96  A    between atoms: _234  and  _237
REMARK   97  A    between atoms: _237  and  _238
REMARK   98  A    between atoms: _238  and  _239
REMARK   99  A    between atoms: _239  and  _240
REMARK  100  A    between atoms: _249  and  _251
REMARK  101  A    between atoms: _251  and  _252
REMARK  102  A    between atoms: _251  and  _254
REMARK  103  A    between atoms: _254  and  _255
REMARK  104  A    between atoms: _261  and  _263
REMARK  105  A    between atoms: _263  and  _264
REMARK  106  A    between atoms: _263  and  _266
REMARK  107  A    between atoms: _266  and  _267
REMARK  108  A    between atoms: _269  and  _271
REMARK  109  A    between atoms: _271  and  _272
REMARK  110  A    between atoms: _271  and  _274
REMARK  111  A    between atoms: _274  and  _275
REMARK  112  A    between atoms: _277  and  _279
REMARK  113  A    between atoms: _279  and  _280
REMARK  114  A    between atoms: _279  and  _282
REMARK  115  A    between atoms: _282  and  _283
REMARK  116  A    between atoms: _289  and  _291
REMARK  117  A    between atoms: _291  and  _292
REMARK  118  A    between atoms: _291  and  _294
REMARK  119  A    between atoms: _297  and  _299
REMARK  120  A    between atoms: _299  and  _300
REMARK  121  A    between atoms: _299  and  _302
REMARK  122  A    between atoms: _302  and  _303
REMARK  123  A    between atoms: _306  and  _308
REMARK  124  A    between atoms: _308  and  _309
REMARK  125  A    between atoms: _308  and  _311
REMARK  126  A    between atoms: _311  and  _312
REMARK  127  A    between atoms: _317  and  _319
REMARK  128  A    between atoms: _319  and  _320
REMARK  129  A    between atoms: _319  and  _322
REMARK  130  A    between atoms: _322  and  _323
REMARK  131  A    between atoms: _323  and  _324
REMARK  132  A    between atoms: _326  and  _328
REMARK  133  A    between atoms: _328  and  _329
REMARK  134  A    between atoms: _328  and  _331
REMARK  135  A    between atoms: _331  and  _332
REMARK  136  A    between atoms: _335  and  _337
REMARK  137  A    between atoms: _337  and  _338
REMARK  138  A    between atoms: _337  and  _340
REMARK  139  A    between atoms: _340  and  _341
REMARK  140  A    between atoms: _344  and  _346
REMARK  141  A    between atoms: _346  and  _347
REMARK  142  A    between atoms: _346  and  _349
REMARK  143  A    between atoms: _352  and  _354
REMARK  144  A    between atoms: _354  and  _355
REMARK  145  A    between atoms: _354  and  _357
REMARK  146  A    between atoms: _357  and  _358
REMARK  147  A    between atoms: _358  and  _359
REMARK  148  A    between atoms: _361  and  _363
REMARK  149  A    between atoms: _363  and  _364
REMARK  150  A    between atoms: _367  and  _369
REMARK  151  A    between atoms: _369  and  _370
REMARK  152  A    between atoms: _369  and  _372
REMARK  153  A    between atoms: _372  and  _373
REMARK  154  A    between atoms: _376  and  _378
REMARK  155  A    between atoms: _378  and  _379
REMARK  156  A    between atoms: _378  and  _381
REMARK  157  A    between atoms: _381  and  _382
REMARK  158  A    between atoms: _385  and  _387
REMARK  159  A    between atoms: _387  and  _388
REMARK  160  A    between atoms: _387  and  _390
REMARK  161  A    between atoms: _390  and  _391
REMARK  162  A    between atoms: _396  and  _397
REMARK  163  A    between atoms: _399  and  _401
REMARK  164  A    between atoms: _401  and  _402
REMARK  165  A    between atoms: _401  and  _404
REMARK  166  A    between atoms: _404  and  _405
REMARK  167  A    between atoms: _408  and  _410
REMARK  168  A    between atoms: _410  and  _411
REMARK  169  A    between atoms: _410  and  _413
REMARK  170  A    between atoms: _415  and  _417
REMARK  171  A    between atoms: _417  and  _418
REMARK  172  A    between atoms: _417  and  _420
REMARK  173  A    between atoms: _420  and  _421
REMARK  174  A    between atoms: _431  and  _433
REMARK  175  A    between atoms: _433  and  _434
REMARK  176  A    between atoms: _437  and  _439
REMARK  177  A    between atoms: _439  and  _440
REMARK  178  A    between atoms: _439  and  _442
REMARK  179  A    between atoms: _445  and  _447
REMARK  180  A    between atoms: _447  and  _448
REMARK  181  A    between atoms: _447  and  _450
REMARK  182  A    between atoms: _450  and  _451
REMARK  183  A    between atoms: _453  and  _455
REMARK  184  A    between atoms: _455  and  _456
REMARK  185  A    between atoms: _455  and  _458
REMARK  186  A    between atoms: _461  and  _463
REMARK  187  A    between atoms: _463  and  _464
REMARK  188  A    between atoms: _463  and  _466
REMARK  189  A    between atoms: _466  and  _467
REMARK  190  A    between atoms: _470  and  _472
REMARK  191  A    between atoms: _472  and  _473
REMARK  192  A    between atoms: _472  and  _475
REMARK  193  A    between atoms: _475  and  _476
REMARK  194  A    between atoms: _476  and  _477
REMARK  195  A    between atoms: _477  and  _478
REMARK  196  A    between atoms: _487  and  _489
REMARK  197  A    between atoms: _489  and  _490
REMARK  198  A    between atoms: _489  and  _492
REMARK  199  A    between atoms: _495  and  _497
REMARK  200  A    between atoms: _497  and  _498
REMARK  201  A    between atoms: _497  and  _500
REMARK  202  A    between atoms: _500  and  _501
REMARK  203  A    between atoms: _504  and  _506
REMARK  204  A    between atoms: _506  and  _507
REMARK  205  A    between atoms: _506  and  _509
REMARK  206  A    between atoms: _509  and  _510
REMARK  207  A    between atoms: _513  and  _515
REMARK  208  A    between atoms: _515  and  _516
REMARK  209  A    between atoms: _515  and  _518
REMARK  210  A    between atoms: _521  and  _523
REMARK  211  A    between atoms: _523  and  _524
REMARK  212  A    between atoms: _523  and  _526
REMARK  213  A    between atoms: _528  and  _530
REMARK  214  A    between atoms: _530  and  _531
REMARK  215  A    between atoms: _530  and  _533
REMARK  216  A    between atoms: _533  and  _534
REMARK  217  A    between atoms: _539  and  _541
REMARK  218  A    between atoms: _541  and  _542
REMARK  219  A    between atoms: _541  and  _544
REMARK  220  A    between atoms: _544  and  _545
REMARK  221  A    between atoms: _547  and  _549
REMARK  222  A    between atoms: _549  and  _550
REMARK  223  A    between atoms: _549  and  _552
REMARK  224  A    between atoms: _552  and  _553
REMARK                            x       y       z     vdW  Elec       q    Type
REMARK                         _______ _______ _______ _____ _____    ______ ____
ROOT
ATOM      1  CA  TYR A   5      57.869  15.367  18.684  0.00  0.00    +0.153 C 
ENDROOT
BRANCH   1   2
ATOM      2  C   TYR A   5      57.151  16.608  19.224  0.00  0.00    +0.241 C 
ATOM      3  N   ASP A   6      57.078  16.727  20.549  0.00  0.00    -0.297 N 
ATOM      4  H   ASP A   6      57.523  16.001  21.146  0.00  0.00    +0.150 HD
ATOM      5  O   TYR A   5      56.676  17.441  18.450  0.00  0.00    -0.273 OA
BRANCH   3   6
ATOM      6  CA  ASP A   6      56.391  17.849  21.189  0.00  0.00    +0.160 C 
BRANCH   6   7
ATOM      7  C   ASP A   6      54.964  17.905  20.631  0.00  0.00    +0.241 C 
ATOM      8  O   ASP A   6      54.248  16.905  20.692  0.00  0.00    -0.273 OA
ATOM      9  N   CYS A   7      54.540  19.043  20.085  0.00  0.00    -0.296 N 
ATOM     10  H   CYS A   7      55.168  19.871  20.040  0.00  0.00    +0.150 HD
BRANCH   9  11
ATOM     11  CA  CYS A   7      53.180  19.115  19.549  0.00  0.00    +0.160 C 
BRANCH  11  12
ATOM     12  C   CYS A   7      53.034  19.888  18.242  0.00  0.00    +0.242 C 
ATOM     13  O   CYS A   7      51.922  20.242  17.849  0.00  0.00    -0.273 OA
ATOM     14  N   TRP A   8      54.142  20.150  17.562  0.00  0.00    -0.298 N 
ATOM     15  H   TRP A   8      55.065  19.838  17.926  0.00  0.00    +0.150 HD
BRANCH  14  16
ATOM     16  CA  TRP A   8      54.059  20.875  16.305  0.00  0.00    +0.141 C 
BRANCH  16  17
ATOM     17  C   TRP A   8      53.613  19.934  15.191  0.00  0.00    +0.227 C 
ATOM     18  O   TRP A   8      53.296  20.382  14.089  0.00  0.00    -0.286 OA
ENDBRANCH  16  17
BRANCH  16  19
ATOM     19  CB  TRP A   8      55.408  21.503  15.942  0.00  0.00    +0.056 C 
BRANCH  19  20
ATOM     20  CG  TRP A   8      56.505  20.510  15.795  0.00  0.00    -0.002 A 
ATOM     21  CD1 TRP A   8      57.211  19.920  16.796  0.00  0.00    +0.068 A 
ATOM     22  NE1 TRP A   8      58.122  19.034  16.274  0.00  0.00    -0.352 N 
ATOM     23  HE1 TRP A   8      58.785  18.453  16.827  0.00  0.00    +0.166 HD
ATOM     24  CE2 TRP A   8      58.017  19.039  14.909  0.00  0.00    +0.056 A 
ATOM     25  CZ2 TRP A   8      58.723  18.312  13.945  0.00  0.00    +0.017 A 
ATOM     26  CH2 TRP A   8      58.398  18.522  12.626  0.00  0.00    +0.001 A 
ATOM     27  CZ3 TRP A   8      57.396  19.434  12.254  0.00  0.00    +0.000 A 
ATOM     28  CE3 TRP A   8      56.693  20.158  13.217  0.00  0.00    +0.001 A 
ATOM     29  CD2 TRP A   8      57.005  19.961  14.571  0.00  0.00    +0.013 A 
ENDBRANCH  19  20
ENDBRANCH  16  19
ENDBRANCH  14  16
ENDBRANCH  11  12
BRANCH  11  30
ATOM     30  CB  CYS A   7      52.221  19.703  20.595  0.00  0.00    +0.098 C 
ATOM     31  SG  CYS A   7      52.436  21.459  20.933  0.00  0.00    -0.080 S 
ENDBRANCH  11  30
ENDBRANCH   9  11
ENDBRANCH   6   7
BRANCH   6  32
ATOM     32  CB  ASP A   6      57.140  19.166  20.928  0.00  0.00    +0.143 C 
BRANCH  32  33
ATOM     33  CG  ASP A   6      56.744  20.267  21.900  0.00  0.00    +0.367 C 
ATOM     34  OD2 ASP A   6      56.657  19.991  23.119  0.00  0.00    -0.246 OA
ATOM     35  OD1 ASP A   6      56.532  21.415  21.451  0.00  0.00    -0.246 OA
ENDBRANCH  32  33
ENDBRANCH   6  32
ENDBRANCH   3   6
ENDBRANCH   1   2
BRANCH   1  38
ATOM     36  C   ASP A   4      58.932  13.904  20.329  0.00  0.00    +0.241 C 
ATOM     37  O   ASP A   4      60.061  14.368  20.116  0.00  0.00    -0.273 OA
ATOM     38  N   TYR A   5      57.839  14.308  19.690  0.00  0.00    -0.297 N 
ATOM     39  H   TYR A   5      56.930  13.854  19.914  0.00  0.00    +0.150 HD
BRANCH  36  40
ATOM     40  CA  ASP A   4      58.722  12.814  21.367  0.00  0.00    +0.160 C 
BRANCH  40  43
ATOM     41  C   THR A   3      60.142  11.363  22.705  0.00  0.00    +0.243 C 
ATOM     42  O   THR A   3      59.225  10.567  22.900  0.00  0.00    -0.273 OA
ATOM     43  N   ASP A   4      60.003  12.455  21.962  0.00  0.00    -0.296 N 
ATOM     44  H   ASP A   4      60.827  13.068  21.801  0.00  0.00    +0.150 HD
BRANCH  41  45
ATOM     45  CA  THR A   3      61.527  11.114  23.299  0.00  0.00    +0.176 C 
BRANCH  45  47
ATOM     46  C   ALA A   2      63.580  11.627  22.105  0.00  0.00    +0.241 C 
ATOM     47  N   THR A   3      62.526  12.051  22.797  0.00  0.00    -0.295 N 
ATOM     48  H   THR A   3      62.412  13.068  22.983  0.00  0.00    +0.150 HD
ATOM     49  O   ALA A   2      63.777  10.432  21.844  0.00  0.00    -0.273 OA
BRANCH  46  50
ATOM     50  CA  ALA A   2      64.569  12.699  21.647  0.00  0.00    +0.149 C 
ATOM     51  CB  ALA A   2      64.542  12.841  20.129  0.00  0.00    +0.031 C 
BRANCH  50  54
ATOM     52  C   MET A   1      66.201  12.265  23.382  0.00  0.00    +0.238 C 
ATOM     53  O   MET A   1      65.407  12.588  24.257  0.00  0.00    -0.274 OA
ATOM     54  N   ALA A   2      65.897  12.295  22.089  0.00  0.00    -0.297 N 
ATOM     55  H   ALA A   2      66.614  12.027  21.385  0.00  0.00    +0.150 HD
BRANCH  52  56
ATOM     56  CA  MET A   1      67.609  11.818  23.747  0.00  0.00    +0.146 C 
BRANCH  56  57
ATOM     57  N   MET A   1      68.339  12.932  24.336  0.00  0.00    -0.238 NA
ATOM     58  H   MET A   1      68.027  13.313  25.252  0.00  0.00    +0.142 HD
ENDBRANCH  56  57
BRANCH  56  59
ATOM     59  CB  MET A   1      67.552  10.657  24.748  0.00  0.00    +0.038 C 
BRANCH  59  60
ATOM     60  CG  MET A   1      66.560   9.550  24.412  0.00  0.00    +0.060 C 
BRANCH  60  61
ATOM     61  SD  MET A   1      67.035   8.533  23.014  0.00  0.00    -0.139 S 
ATOM     62  CE  MET A   1      68.334   7.516  23.782  0.00  0.00    +0.069 C 
ENDBRANCH  60  61
ENDBRANCH  59  60
ENDBRANCH  56  59
ENDBRANCH  52  56
ENDBRANCH  50  54
ENDBRANCH  46  50
ENDBRANCH  45  47
BRANCH  45  63
ATOM     63  CB  THR A   3      61.427  11.193  24.840  0.00  0.00    +0.137 C 
ATOM     64  CG2 THR A   3      62.737  10.758  25.481  0.00  0.00    +0.034 C 
BRANCH  63  65
ATOM     65  OG1 THR A   3      61.133  12.539  25.235  0.00  0.00    -0.382 OA
ATOM     66  HG1 THR A   3      60.272  12.819  24.834  0.00  0.00    +0.210 HD
ENDBRANCH  63  65
ENDBRANCH  45  63
ENDBRANCH  41  45
ENDBRANCH  40  43
BRANCH  40  67
ATOM     67  CB  ASP A   4      57.792  13.337  22.460  0.00  0.00    +0.143 C 
BRANCH  67  68
ATOM     68  CG  ASP A   4      58.402  14.505  23.219  0.00  0.00    +0.367 C 
ATOM     69  OD2 ASP A   4      59.072  14.262  24.246  0.00  0.00    -0.246 OA
ATOM     70  OD1 ASP A   4      58.236  15.663  22.779  0.00  0.00    -0.246 OA
ENDBRANCH  67  68
ENDBRANCH  40  67
ENDBRANCH  36  40
ENDBRANCH   1  38
BRANCH   1  71
ATOM     71  CB  TYR A   5      57.169  14.900  17.401  0.00  0.00    +0.055 C 
BRANCH  71  72
ATOM     72  CG  TYR A   5      58.061  14.186  16.410  0.00  0.00    -0.020 A 
ATOM     73  CD2 TYR A   5      57.802  12.870  16.024  0.00  0.00    -0.001 A 
ATOM     74  CE2 TYR A   5      58.597  12.227  15.072  0.00  0.00    +0.036 A 
ATOM     75  CZ  TYR A   5      59.667  12.908  14.503  0.00  0.00    +0.134 A 
ATOM     76  CE1 TYR A   5      59.944  14.209  14.875  0.00  0.00    +0.036 A 
ATOM     77  CD1 TYR A   5      59.141  14.842  15.825  0.00  0.00    -0.001 A 
BRANCH  75  78
ATOM     78  OH  TYR A   5      60.459  12.296  13.559  0.00  0.00    -0.506 OA
ATOM     79  HH  TYR A   5      61.166  12.924  13.266  0.00  0.00    +0.292 HD
ENDBRANCH  75  78
ENDBRANCH  71  72
ENDBRANCH   1  71
TORSDOF 31
REMARK  Name = ../refined-set-2016/1k27/1k27_pocket.pdb
REMARK  224 active torsions:
REMARK  status: ('A' for Active; 'I' for Inactive)
REMARK    1  A    between atoms: _1  and  _3
REMARK    2  A    between atoms: _3  and  _4
REMARK    3  A    between atoms: _6  and  _8
REMARK    4  A    between atoms: _8  and  _9
REMARK    5  A    between atoms: _8  and  _11
REMARK    6  A    between atoms: _11  and  _12
REMARK    7  A    between atoms: _15  and  _17
REMARK    8  A    between atoms: _17  and  _18
REMARK    9  A    between atoms: _20  and  _22
REMARK   10  A    between atoms: _22  and  _23
REMARK   11  A    between atoms: _22  and  _25
REMARK   12  A    between atoms: _25  and  _26
REMARK   13  A    between atoms: _26  and  _27
REMARK   14  A    between atoms: _27  and  _28
REMARK   15  A    between atoms: _37  and  _39
REMARK   16  A    between atoms: _39  and  _40
REMARK   17  A    between atoms: _39  and  _42
REMARK   18  A    between atoms: _42  and  _43
REMARK   19  A    between atoms: _48  and  _50
REMARK   20  A    between atoms: _50  and  _51
REMARK   21  A    between atoms: _50  and  _53
REMARK   22  A    between atoms: _53  and  _54
REMARK   23  A    between atoms: _59  and  _61
REMARK   24  A    between atoms: _61  and  _62
REMARK   25  A    between atoms: _61  and  _64
REMARK   26  A    between atoms: _64  and  _65
REMARK   27  A    between atoms: _68  and  _70
REMARK   28  A    between atoms: _70  and  _71
REMARK   29  A    between atoms: _70  and  _73
REMARK   30  A    between atoms: _73  and  _74
REMARK   31  A    between atoms: _74  and  _75
REMARK   32  A    between atoms: _78  and  _79
REMARK   33  A    between atoms: _84  and  _86
REMARK   34  A    between atoms: _86  and  _87
REMARK   35  A    between atoms: _86  and  _89
REMARK   36  A    between atoms: _89  and  _90
REMARK   37  A    between atoms: _92  and  _94
REMARK   38  A    between atoms: _94  and  _95
REMARK   39  A    between atoms: _94  and  _97
REMARK   40  A    between atoms: _100  and  _102
REMARK   41  A    between atoms: _102  and  _103
REMARK   42  A    between atoms: _102  and  _105
REMARK   43  A    between atoms: _105  and  _106
REMARK   44  A    between atoms: _111  and  _112
REMARK   45  A    between atoms: _114  and  _116
REMARK   46  A    between atoms: _116  and  _117
REMARK   47  A    between atoms: _116  and  _119
REMARK   48  A    between atoms: _119  and  _120
REMARK   49  A    between atoms: _123  and  _125
REMARK   50  A    between atoms: _125  and  _126
REMARK   51  A    between atoms: _129  and  _131
REMARK   52  A    between atoms: _131  and  _132
REMARK   53  A    between atoms: _131  and  _134
REMARK   54  A    between atoms: _136  and  _138
REMARK   55  A    between atoms: _138  and  _139
REMARK   56  A    between atoms: _141  and  _143
REMARK   57  A    between atoms: _143  and  _144
REMARK   58  A    between atoms: _143  and  _146
REMARK   59  A    between atoms: _146  and  _147
REMARK   60  A    between atoms: _149  and  _151
REMARK   61  A    between atoms: _151  and  _152
REMARK   62  A    between atoms: _151  and  _154
REMARK   63  A    between atoms: _154  and  _155
REMARK   64  A    between atoms: _158  and  _160
REMARK   65  A    between atoms: _160  and  _161
REMARK   66  A    between atoms: _160  and  _163
REMARK   67  A    between atoms: _163  and  _164
REMARK   68  A    between atoms: _164  and  _165
REMARK   69  A    between atoms: _165  and  _166
REMARK   70  A    between atoms: _175  and  _177
REMARK   71  A    between atoms: _177  and  _178
REMARK   72  A    between atoms: _177  and  _180
REMARK   73  A    between atoms: _180  and  _181
REMARK   74  A    between atoms: _181  and  _182
REMARK   75  A    between atoms: _184  and  _186
REMARK   76  A    between atoms: _186  and  _187
REMARK   77  A    between atoms: _186  and  _189
REMARK   78  A    between atoms: _192  and  _194
REMARK   79  A    between atoms: _194  and  _195
REMARK   80  A    between atoms: _194  and  _197
REMARK   81  A    between atoms: _197  and  _198
REMARK   82  A    between atoms: _201  and  _203
REMARK   83  A    between atoms: _203  and  _204
REMARK   84  A    between atoms: _203  and  _206
REMARK   85  A    between atoms: _206  and  _207
REMARK   86  A    between atoms: _210  and  _212
REMARK   87  A    between atoms: _212  and  _213
REMARK   88  A    between atoms: _212  and  _215
REMARK   89  A    between atoms: _215  and  _216
REMARK   90  A    between atoms: _216  and  _217
REMARK   91  A    between atoms: _220  and  _222
REMARK   92  A    between atoms: _222  and  _223
REMARK   93  A    between atoms: _226  and  _227
REMARK   94  A    between atoms: _232  and  _234
REMARK   95  A    between atoms: _234  and  _235
REMARK   96  A    between atoms: _234  and  _237
REMARK   97  A    between atoms: _237  and  _238
REMARK   98  A    between atoms: _238  and  _239
REMARK   99  A    between atoms: _239  and  _240
REMARK  100  A    between atoms: _249  and  _251
REMARK  101  A    between atoms: _251  and  _252
REMARK  102  A    between atoms: _251  and  _254
REMARK  103  A    between atoms: _254  and  _255
REMARK  104  A    between atoms: _261  and  _263
REMARK  105  A    between atoms: _263  and  _264
REMARK  106  A    between atoms: _263  and  _266
REMARK  107  A    between atoms: _266  and  _267
REMARK  108  A    between atoms: _269  and  _271
REMARK  109  A    between atoms: _271  and  _272
REMARK  110  A    between atoms: _271  and  _274
REMARK  111  A    between atoms: _274  and  _275
REMARK  112  A    between atoms: _277  and  _279
REMARK  113  A    between atoms: _279  and  _280
REMARK  114  A    between atoms: _279  and  _282
REMARK  115  A    between atoms: _282  and  _283
REMARK  116  A    between atoms: _289  and  _291
REMARK  117  A    between atoms: _291  and  _292
REMARK  118  A    between atoms: _291  and  _294
REMARK  119  A    between atoms: _297  and  _299
REMARK  120  A    between atoms: _299  and  _300
REMARK  121  A    between atoms: _299  and  _302
REMARK  122  A    between atoms: _302  and  _303
REMARK  123  A    between atoms: _306  and  _308
REMARK  124  A    between atoms: _308  and  _309
REMARK  125  A    between atoms: _308  and  _311
REMARK  126  A    between atoms: _311  and  _312
REMARK  127  A    between atoms: _317  and  _319
REMARK  128  A    between atoms: _319  and  _320
REMARK  129  A    between atoms: _319  and  _322
REMARK  130  A    between atoms: _322  and  _323
REMARK  131  A    between atoms: _323  and  _324
REMARK  132  A    between atoms: _326  and  _328
REMARK  133  A    between atoms: _328  and  _329
REMARK  134  A    between atoms: _328  and  _331
REMARK  135  A    between atoms: _331  and  _332
REMARK  136  A    between atoms: _335  and  _337
REMARK  137  A    between atoms: _337  and  _338
REMARK  138  A    between atoms: _337  and  _340
REMARK  139  A    between atoms: _340  and  _341
REMARK  140  A    between atoms: _344  and  _346
REMARK  141  A    between atoms: _346  and  _347
REMARK  142  A    between atoms: _346  and  _349
REMARK  143  A    between atoms: _352  and  _354
REMARK  144  A    between atoms: _354  and  _355
REMARK  145  A    between atoms: _354  and  _357
REMARK  146  A    between atoms: _357  and  _358
REMARK  147  A    between atoms: _358  and  _359
REMARK  148  A    between atoms: _361  and  _363
REMARK  149  A    between atoms: _363  and  _364
REMARK  150  A    between atoms: _367  and  _369
REMARK  151  A    between atoms: _369  and  _370
REMARK  152  A    between atoms: _369  and  _372
REMARK  153  A    between atoms: _372  and  _373
REMARK  154  A    between atoms: _376  and  _378
REMARK  155  A    between atoms: _378  and  _379
REMARK  156  A    between atoms: _378  and  _381
REMARK  157  A    between atoms: _381  and  _382
REMARK  158  A    between atoms: _385  and  _387
REMARK  159  A    between atoms: _387  and  _388
REMARK  160  A    between atoms: _387  and  _390
REMARK  161  A    between atoms: _390  and  _391
REMARK  162  A    between atoms: _396  and  _397
REMARK  163  A    between atoms: _399  and  _401
REMARK  164  A    between atoms: _401  and  _402
REMARK  165  A    between atoms: _401  and  _404
REMARK  166  A    between atoms: _404  and  _405
REMARK  167  A    between atoms: _408  and  _410
REMARK  168  A    between atoms: _410  and  _411
REMARK  169  A    between atoms: _410  and  _413
REMARK  170  A    between atoms: _415  and  _417
REMARK  171  A    between atoms: _417  and  _418
REMARK  172  A    between atoms: _417  and  _420
REMARK  173  A    between atoms: _420  and  _421
REMARK  174  A    between atoms: _431  and  _433
REMARK  175  A    between atoms: _433  and  _434
REMARK  176  A    between atoms: _437  and  _439
REMARK  177  A    between atoms: _439  and  _440
REMARK  178  A    between atoms: _439  and  _442
REMARK  179  A    between atoms: _445  and  _447
REMARK  180  A    between atoms: _447  and  _448
REMARK  181  A    between atoms: _447  and  _450
REMARK  182  A    between atoms: _450  and  _451
REMARK  183  A    between atoms: _453  and  _455
REMARK  184  A    between atoms: _455  and  _456
REMARK  185  A    between atoms: _455  and  _458
REMARK  186  A    between atoms: _461  and  _463
REMARK  187  A    between atoms: _463  and  _464
REMARK  188  A    between atoms: _463  and  _466
REMARK  189  A    between atoms: _466  and  _467
REMARK  190  A    between atoms: _470  and  _472
REMARK  191  A    between atoms: _472  and  _473
REMARK  192  A    between atoms: _472  and  _475
REMARK  193  A    between atoms: _475  and  _476
REMARK  194  A    between atoms: _476  and  _477
REMARK  195  A    between atoms: _477  and  _478
REMARK  196  A    between atoms: _487  and  _489
REMARK  197  A    between atoms: _489  and  _490
REMARK  198  A    between atoms: _489  and  _492
REMARK  199  A    between atoms: _495  and  _497
REMARK  200  A    between atoms: _497  and  _498
REMARK  201  A    between atoms: _497  and  _500
REMARK  202  A    between atoms: _500  and  _501
REMARK  203  A    between atoms: _504  and  _506
REMARK  204  A    between atoms: _506  and  _507
REMARK  205  A    between atoms: _506  and  _509
REMARK  206  A    between atoms: _509  and  _510
REMARK  207  A    between atoms: _513  and  _515
REMARK  208  A    between atoms: _515  and  _516
REMARK  209  A    between atoms: _515  and  _518
REMARK  210  A    between atoms: _521  and  _523
REMARK  211  A    between atoms: _523  and  _524
REMARK  212  A    between atoms: _523  and  _526
REMARK  213  A    between atoms: _528  and  _530
REMARK  214  A    between atoms: _530  and  _531
REMARK  215  A    between atoms: _530  and  _533
REMARK  216  A    between atoms: _533  and  _534
REMARK  217  A    between atoms: _539  and  _541
REMARK  218  A    between atoms: _541  and  _542
REMARK  219  A    between atoms: _541  and  _544
REMARK  220  A    between atoms: _544  and  _545
REMARK  221  A    between atoms: _547  and  _549
REMARK  222  A    between atoms: _549  and  _550
REMARK  223  A    between atoms: _549  and  _552
REMARK  224  A    between atoms: _552  and  _553
REMARK                            x       y       z     vdW  Elec       q    Type
REMARK                         _______ _______ _______ _____ _____    ______ ____
ROOT
ATOM      1  CA  ASP A   5      53.458   8.423  29.313  0.00  0.00    +0.160 C 
ENDROOT
BRANCH   1   4
ATOM      2  C   VAL A   4      54.538  10.526  29.852  0.00  0.00    +0.241 C 
ATOM      3  O   VAL A   4      55.648   9.997  29.803  0.00  0.00    -0.273 OA
ATOM      4  N   ASP A   5      53.413   9.851  29.625  0.00  0.00    -0.297 N 
ATOM      5  H   ASP A   5      52.497  10.342  29.670  0.00  0.00    +0.150 HD
BRANCH   2   6
ATOM      6  CA  VAL A   4      54.404  12.016  30.176  0.00  0.00    +0.149 C 
BRANCH   6   8
ATOM      7  C   SER A   3      53.604  12.686  27.983  0.00  0.00    +0.243 C 
ATOM      8  N   VAL A   4      53.436  12.672  29.301  0.00  0.00    -0.297 N 
ATOM      9  H   VAL A   4      52.602  13.135  29.716  0.00  0.00    +0.150 HD
ATOM     10  O   SER A   3      54.573  12.165  27.429  0.00  0.00    -0.273 OA
BRANCH   7  11
ATOM     11  CA  SER A   3      52.537  13.388  27.150  0.00  0.00    +0.178 C 
BRANCH  11  13
ATOM     12  C   VAL A   2      52.779  14.613  25.036  0.00  0.00    +0.241 C 
ATOM     13  N   SER A   3      53.172  13.648  25.863  0.00  0.00    -0.295 N 
ATOM     14  H   SER A   3      53.973  13.049  25.577  0.00  0.00    +0.150 HD
ATOM     15  O   VAL A   2      51.814  15.350  25.260  0.00  0.00    -0.273 OA
BRANCH  12  16
ATOM     16  CA  VAL A   2      53.602  14.755  23.758  0.00  0.00    +0.148 C 
BRANCH  16  18
ATOM     17  C   ALA A   1      51.886  14.495  22.059  0.00  0.00    +0.238 C 
ATOM     18  N   VAL A   2      52.833  15.236  22.619  0.00  0.00    -0.297 N 
ATOM     19  H   VAL A   2      53.031  16.182  22.236  0.00  0.00    +0.150 HD
ATOM     20  O   ALA A   1      51.588  13.376  22.470  0.00  0.00    -0.274 OA
BRANCH  17  21
ATOM     21  CA  ALA A   1      51.166  15.113  20.862  0.00  0.00    +0.145 C 
ATOM     22  CB  ALA A   1      50.108  16.097  21.336  0.00  0.00    +0.028 C 
BRANCH  21  23
ATOM     23  N   ALA A   1      50.557  14.096  20.010  0.00  0.00    -0.238 NA
ATOM     24  H   ALA A   1      49.522  14.068  19.912  0.00  0.00    +0.142 HD
ENDBRANCH  21  23
ENDBRANCH  17  21
ENDBRANCH  16  18
BRANCH  16  25
ATOM     25  CB  VAL A   2      54.796  15.698  24.056  0.00  0.00    +0.027 C 
ATOM     26  CG2 VAL A   2      55.652  15.123  25.174  0.00  0.00    +0.002 C 
ATOM     27  CG1 VAL A   2      54.285  17.087  24.432  0.00  0.00    +0.002 C 
ENDBRANCH  16  25
ENDBRANCH  12  16
ENDBRANCH  11  13
BRANCH  11  28
ATOM     28  CB  SER A   3      51.325  12.463  26.992  0.00  0.00    +0.166 C 
BRANCH  28  29
ATOM     29  OG  SER A   3      51.736  11.131  26.728  0.00  0.00    -0.380 OA
ATOM     30  H   SER A   3      50.938  10.554  26.630  0.00  0.00    +0.211 HD
ENDBRANCH  28  29
ENDBRANCH  11  28
ENDBRANCH   7  11
ENDBRANCH   6   8
BRANCH   6  31
ATOM     31  CB  VAL A   4      54.015  12.187  31.667  0.00  0.00    +0.027 C 
ATOM     32  CG2 VAL A   4      54.851  11.267  32.542  0.00  0.00    +0.002 C 
ATOM     33  CG1 VAL A   4      54.236  13.631  32.090  0.00  0.00    +0.002 C 
ENDBRANCH   6  31
ENDBRANCH   2   6
ENDBRANCH   1   4
BRANCH   1  34
ATOM     34  C   ASP A   5      54.252   8.139  28.043  0.00  0.00    +0.241 C 
ATOM     35  O   ASP A   5      55.042   7.196  27.997  0.00  0.00    -0.273 OA
ATOM     36  N   ARG A   6      54.038   8.951  27.013  0.00  0.00    -0.297 N 
ATOM     37  H   ARG A   6      53.349   9.724  27.109  0.00  0.00    +0.150 HD
BRANCH  36  38
ATOM     38  CA  ARG A   6      54.749   8.781  25.749  0.00  0.00    +0.149 C 
BRANCH  38  39
ATOM     39  C   ARG A   6      56.252   8.956  25.960  0.00  0.00    +0.241 C 
ATOM     40  N   VAL A   7      56.626   9.932  26.784  0.00  0.00    -0.297 N 
ATOM     41  H   VAL A   7      55.902  10.523  27.240  0.00  0.00    +0.150 HD
ATOM     42  O   ARG A   6      57.057   8.222  25.387  0.00  0.00    -0.273 OA
BRANCH  40  43
ATOM     43  CA  VAL A   7      58.037  10.185  27.057  0.00  0.00    +0.149 C 
BRANCH  43  44
ATOM     44  C   VAL A   7      58.690   9.029  27.809  0.00  0.00    +0.241 C 
ATOM     45  N   LEU A   8      58.036   8.558  28.864  0.00  0.00    -0.298 N 
ATOM     46  H   LEU A   8      57.124   8.979  29.132  0.00  0.00    +0.150 HD
ATOM     47  O   VAL A   7      59.772   8.575  27.441  0.00  0.00    -0.273 OA
BRANCH  45  48
ATOM     48  CA  LEU A   8      58.581   7.458  29.651  0.00  0.00    +0.137 C 
BRANCH  48  49
ATOM     49  C   LEU A   8      58.702   6.172  28.830  0.00  0.00    +0.227 C 
ATOM     50  O   LEU A   8      59.644   5.405  29.009  0.00  0.00    -0.286 OA
ENDBRANCH  48  49
BRANCH  48  51
ATOM     51  CB  LEU A   8      57.710   7.214  30.891  0.00  0.00    +0.028 C 
BRANCH  51  52
ATOM     52  CG  LEU A   8      57.587   8.398  31.859  0.00  0.00    +0.002 C 
ATOM     53  CD2 LEU A   8      56.769   7.984  33.082  0.00  0.00    +0.000 C 
ATOM     54  CD1 LEU A   8      58.973   8.869  32.282  0.00  0.00    +0.000 C 
ENDBRANCH  51  52
ENDBRANCH  48  51
ENDBRANCH  45  48
ENDBRANCH  43  44
BRANCH  43  55
ATOM     55  CB  VAL A   7      58.230  11.476  27.879  0.00  0.00    +0.027 C 
ATOM     56  CG2 VAL A   7      59.693  11.627  28.275  0.00  0.00    +0.002 C 
ATOM     57  CG1 VAL A   7      57.767  12.680  27.064  0.00  0.00    +0.002 C 
ENDBRANCH  43  55
ENDBRANCH  40  43
ENDBRANCH  38  39
BRANCH  38  58
ATOM     58  CB  ARG A   6      54.239   9.799  24.723  0.00  0.00    +0.033 C 
BRANCH  58  59
ATOM     59  CG  ARG A   6      55.062   9.918  23.439  0.00  0.00    +0.045 C 
BRANCH  59  60
ATOM     60  CD  ARG A   6      54.995   8.671  22.561  0.00  0.00    +0.174 C 
BRANCH  60  61
ATOM     61  NE  ARG A   6      55.903   7.616  23.004  0.00  0.00    -0.265 N 
ATOM     62  HE  ARG A   6      56.376   7.735  23.923  0.00  0.00    +0.259 HD
ATOM     63  CZ  ARG A   6      56.164   6.513  22.308  0.00  0.00    +0.342 C 
ATOM     64  NH2 ARG A   6      57.012   5.610  22.784  0.00  0.00    -0.292 N 
ATOM     65 HH21 ARG A   6      57.474   5.764  23.703  0.00  0.00    +0.255 HD
ATOM     66 HH22 ARG A   6      57.215   4.748  22.238  0.00  0.00    +0.255 HD
ATOM     67  NH1 ARG A   6      55.585   6.314  21.131  0.00  0.00    -0.292 N 
ATOM     68 HH11 ARG A   6      54.925   7.022  20.750  0.00  0.00    +0.255 HD
ATOM     69 HH12 ARG A   6      55.791   5.450  20.589  0.00  0.00    +0.255 HD
ENDBRANCH  60  61
ENDBRANCH  59  60
ENDBRANCH  58  59
ENDBRANCH  38  58
ENDBRANCH  36  38
ENDBRANCH   1  34
BRANCH   1  70
ATOM     70  CB  ASP A   5      52.045   7.846  29.171  0.00  0.00    +0.143 C 
BRANCH  70  71
ATOM     71  CG  ASP A   5      51.323   7.735  30.503  0.00  0.00    +0.367 C 
ATOM     72  OD2 ASP A   5      51.967   7.351  31.503  0.00  0.00    -0.246 OA
ATOM     73  OD1 ASP A   5      50.107   8.016  30.548  0.00  0.00    -0.246 OA
ENDBRANCH  70  71
ENDBRANCH   1  70
TORSDOF 29
REMARK  Name = ../refined-set-2016/1k27/1k27_pocket.pdb
REMARK  224 active torsions:
REMARK  status: ('A' for Active; 'I' for Inactive)
REMARK    1  A    between atoms: _1  and  _3
REMARK    2  A    between atoms: _3  and  _4
REMARK    3  A    between atoms: _6  and  _8
REMARK    4  A    between atoms: _8  and  _9
REMARK    5  A    between atoms: _8  and  _11
REMARK    6  A    between atoms: _11  and  _12
REMARK    7  A    between atoms: _15  and  _17
REMARK    8  A    between atoms: _17  and  _18
REMARK    9  A    between atoms: _20  and  _22
REMARK   10  A    between atoms: _22  and  _23
REMARK   11  A    between atoms: _22  and  _25
REMARK   12  A    between atoms: _25  and  _26
REMARK   13  A    between atoms: _26  and  _27
REMARK   14  A    between atoms: _27  and  _28
REMARK   15  A    between atoms: _37  and  _39
REMARK   16  A    between atoms: _39  and  _40
REMARK   17  A    between atoms: _39  and  _42
REMARK   18  A    between atoms: _42  and  _43
REMARK   19  A    between atoms: _48  and  _50
REMARK   20  A    between atoms: _50  and  _51
REMARK   21  A    between atoms: _50  and  _53
REMARK   22  A    between atoms: _53  and  _54
REMARK   23  A    between atoms: _59  and  _61
REMARK   24  A    between atoms: _61  and  _62
REMARK   25  A    between atoms: _61  and  _64
REMARK   26  A    between atoms: _64  and  _65
REMARK   27  A    between atoms: _68  and  _70
REMARK   28  A    between atoms: _70  and  _71
REMARK   29  A    between atoms: _70  and  _73
REMARK   30  A    between atoms: _73  and  _74
REMARK   31  A    between atoms: _74  and  _75
REMARK   32  A    between atoms: _78  and  _79
REMARK   33  A    between atoms: _84  and  _86
REMARK   34  A    between atoms: _86  and  _87
REMARK   35  A    between atoms: _86  and  _89
REMARK   36  A    between atoms: _89  and  _90
REMARK   37  A    between atoms: _92  and  _94
REMARK   38  A    between atoms: _94  and  _95
REMARK   39  A    between atoms: _94  and  _97
REMARK   40  A    between atoms: _100  and  _102
REMARK   41  A    between atoms: _102  and  _103
REMARK   42  A    between atoms: _102  and  _105
REMARK   43  A    between atoms: _105  and  _106
REMARK   44  A    between atoms: _111  and  _112
REMARK   45  A    between atoms: _114  and  _116
REMARK   46  A    between atoms: _116  and  _117
REMARK   47  A    between atoms: _116  and  _119
REMARK   48  A    between atoms: _119  and  _120
REMARK   49  A    between atoms: _123  and  _125
REMARK   50  A    between atoms: _125  and  _126
REMARK   51  A    between atoms: _129  and  _131
REMARK   52  A    between atoms: _131  and  _132
REMARK   53  A    between atoms: _131  and  _134
REMARK   54  A    between atoms: _136  and  _138
REMARK   55  A    between atoms: _138  and  _139
REMARK   56  A    between atoms: _141  and  _143
REMARK   57  A    between atoms: _143  and  _144
REMARK   58  A    between atoms: _143  and  _146
REMARK   59  A    between atoms: _146  and  _147
REMARK   60  A    between atoms: _149  and  _151
REMARK   61  A    between atoms: _151  and  _152
REMARK   62  A    between atoms: _151  and  _154
REMARK   63  A    between atoms: _154  and  _155
REMARK   64  A    between atoms: _158  and  _160
REMARK   65  A    between atoms: _160  and  _161
REMARK   66  A    between atoms: _160  and  _163
REMARK   67  A    between atoms: _163  and  _164
REMARK   68  A    between atoms: _164  and  _165
REMARK   69  A    between atoms: _165  and  _166
REMARK   70  A    between atoms: _175  and  _177
REMARK   71  A    between atoms: _177  and  _178
REMARK   72  A    between atoms: _177  and  _180
REMARK   73  A    between atoms: _180  and  _181
REMARK   74  A    between atoms: _181  and  _182
REMARK   75  A    between atoms: _184  and  _186
REMARK   76  A    between atoms: _186  and  _187
REMARK   77  A    between atoms: _186  and  _189
REMARK   78  A    between atoms: _192  and  _194
REMARK   79  A    between atoms: _194  and  _195
REMARK   80  A    between atoms: _194  and  _197
REMARK   81  A    between atoms: _197  and  _198
REMARK   82  A    between atoms: _201  and  _203
REMARK   83  A    between atoms: _203  and  _204
REMARK   84  A    between atoms: _203  and  _206
REMARK   85  A    between atoms: _206  and  _207
REMARK   86  A    between atoms: _210  and  _212
REMARK   87  A    between atoms: _212  and  _213
REMARK   88  A    between atoms: _212  and  _215
REMARK   89  A    between atoms: _215  and  _216
REMARK   90  A    between atoms: _216  and  _217
REMARK   91  A    between atoms: _220  and  _222
REMARK   92  A    between atoms: _222  and  _223
REMARK   93  A    between atoms: _226  and  _227
REMARK   94  A    between atoms: _232  and  _234
REMARK   95  A    between atoms: _234  and  _235
REMARK   96  A    between atoms: _234  and  _237
REMARK   97  A    between atoms: _237  and  _238
REMARK   98  A    between atoms: _238  and  _239
REMARK   99  A    between atoms: _239  and  _240
REMARK  100  A    between atoms: _249  and  _251
REMARK  101  A    between atoms: _251  and  _252
REMARK  102  A    between atoms: _251  and  _254
REMARK  103  A    between atoms: _254  and  _255
REMARK  104  A    between atoms: _261  and  _263
REMARK  105  A    between atoms: _263  and  _264
REMARK  106  A    between atoms: _263  and  _266
REMARK  107  A    between atoms: _266  and  _267
REMARK  108  A    between atoms: _269  and  _271
REMARK  109  A    between atoms: _271  and  _272
REMARK  110  A    between atoms: _271  and  _274
REMARK  111  A    between atoms: _274  and  _275
REMARK  112  A    between atoms: _277  and  _279
REMARK  113  A    between atoms: _279  and  _280
REMARK  114  A    between atoms: _279  and  _282
REMARK  115  A    between atoms: _282  and  _283
REMARK  116  A    between atoms: _289  and  _291
REMARK  117  A    between atoms: _291  and  _292
REMARK  118  A    between atoms: _291  and  _294
REMARK  119  A    between atoms: _297  and  _299
REMARK  120  A    between atoms: _299  and  _300
REMARK  121  A    between atoms: _299  and  _302
REMARK  122  A    between atoms: _302  and  _303
REMARK  123  A    between atoms: _306  and  _308
REMARK  124  A    between atoms: _308  and  _309
REMARK  125  A    between atoms: _308  and  _311
REMARK  126  A    between atoms: _311  and  _312
REMARK  127  A    between atoms: _317  and  _319
REMARK  128  A    between atoms: _319  and  _320
REMARK  129  A    between atoms: _319  and  _322
REMARK  130  A    between atoms: _322  and  _323
REMARK  131  A    between atoms: _323  and  _324
REMARK  132  A    between atoms: _326  and  _328
REMARK  133  A    between atoms: _328  and  _329
REMARK  134  A    between atoms: _328  and  _331
REMARK  135  A    between atoms: _331  and  _332
REMARK  136  A    between atoms: _335  and  _337
REMARK  137  A    between atoms: _337  and  _338
REMARK  138  A    between atoms: _337  and  _340
REMARK  139  A    between atoms: _340  and  _341
REMARK  140  A    between atoms: _344  and  _346
REMARK  141  A    between atoms: _346  and  _347
REMARK  142  A    between atoms: _346  and  _349
REMARK  143  A    between atoms: _352  and  _354
REMARK  144  A    between atoms: _354  and  _355
REMARK  145  A    between atoms: _354  and  _357
REMARK  146  A    between atoms: _357  and  _358
REMARK  147  A    between atoms: _358  and  _359
REMARK  148  A    between atoms: _361  and  _363
REMARK  149  A    between atoms: _363  and  _364
REMARK  150  A    between atoms: _367  and  _369
REMARK  151  A    between atoms: _369  and  _370
REMARK  152  A    between atoms: _369  and  _372
REMARK  153  A    between atoms: _372  and  _373
REMARK  154  A    between atoms: _376  and  _378
REMARK  155  A    between atoms: _378  and  _379
REMARK  156  A    between atoms: _378  and  _381
REMARK  157  A    between atoms: _381  and  _382
REMARK  158  A    between atoms: _385  and  _387
REMARK  159  A    between atoms: _387  and  _388
REMARK  160  A    between atoms: _387  and  _390
REMARK  161  A    between atoms: _390  and  _391
REMARK  162  A    between atoms: _396  and  _397
REMARK  163  A    between atoms: _399  and  _401
REMARK  164  A    between atoms: _401  and  _402
REMARK  165  A    between atoms: _401  and  _404
REMARK  166  A    between atoms: _404  and  _405
REMARK  167  A    between atoms: _408  and  _410
REMARK  168  A    between atoms: _410  and  _411
REMARK  169  A    between atoms: _410  and  _413
REMARK  170  A    between atoms: _415  and  _417
REMARK  171  A    between atoms: _417  and  _418
REMARK  172  A    between atoms: _417  and  _420
REMARK  173  A    between atoms: _420  and  _421
REMARK  174  A    between atoms: _431  and  _433
REMARK  175  A    between atoms: _433  and  _434
REMARK  176  A    between atoms: _437  and  _439
REMARK  177  A    between atoms: _439  and  _440
REMARK  178  A    between atoms: _439  and  _442
REMARK  179  A    between atoms: _445  and  _447
REMARK  180  A    between atoms: _447  and  _448
REMARK  181  A    between atoms: _447  and  _450
REMARK  182  A    between atoms: _450  and  _451
REMARK  183  A    between atoms: _453  and  _455
REMARK  184  A    between atoms: _455  and  _456
REMARK  185  A    between atoms: _455  and  _458
REMARK  186  A    between atoms: _461  and  _463
REMARK  187  A    between atoms: _463  and  _464
REMARK  188  A    between atoms: _463  and  _466
REMARK  189  A    between atoms: _466  and  _467
REMARK  190  A    between atoms: _470  and  _472
REMARK  191  A    between atoms: _472  and  _473
REMARK  192  A    between atoms: _472  and  _475
REMARK  193  A    between atoms: _475  and  _476
REMARK  194  A    between atoms: _476  and  _477
REMARK  195  A    between atoms: _477  and  _478
REMARK  196  A    between atoms: _487  and  _489
REMARK  197  A    between atoms: _489  and  _490
REMARK  198  A    between atoms: _489  and  _492
REMARK  199  A    between atoms: _495  and  _497
REMARK  200  A    between atoms: _497  and  _498
REMARK  201  A    between atoms: _497  and  _500
REMARK  202  A    between atoms: _500  and  _501
REMARK  203  A    between atoms: _504  and  _506
REMARK  204  A    between atoms: _506  and  _507
REMARK  205  A    between atoms: _506  and  _509
REMARK  206  A    between atoms: _509  and  _510
REMARK  207  A    between atoms: _513  and  _515
REMARK  208  A    between atoms: _515  and  _516
REMARK  209  A    between atoms: _515  and  _518
REMARK  210  A    between atoms: _521  and  _523
REMARK  211  A    between atoms: _523  and  _524
REMARK  212  A    between atoms: _523  and  _526
REMARK  213  A    between atoms: _528  and  _530
REMARK  214  A    between atoms: _530  and  _531
REMARK  215  A    between atoms: _530  and  _533
REMARK  216  A    between atoms: _533  and  _534
REMARK  217  A    between atoms: _539  and  _541
REMARK  218  A    between atoms: _541  and  _542
REMARK  219  A    between atoms: _541  and  _544
REMARK  220  A    between atoms: _544  and  _545
REMARK  221  A    between atoms: _547  and  _549
REMARK  222  A    between atoms: _549  and  _550
REMARK  223  A    between atoms: _549  and  _552
REMARK  224  A    between atoms: _552  and  _553
REMARK                            x       y       z     vdW  Elec       q    Type
REMARK                         _______ _______ _______ _____ _____    ______ ____
ROOT
ATOM      1  CA  LEU A   1      62.964   6.312  27.282  0.00  0.00    +0.133 C 
ENDROOT
BRANCH   1   2
ATOM      2  N   LEU A   1      61.750   6.424  26.486  0.00  0.00    -0.239 NA
ATOM      3  H   LEU A   1      60.946   6.972  26.854  0.00  0.00    +0.142 HD
ENDBRANCH   1   2
BRANCH   1   4
ATOM      4  C   LEU A   1      63.209   4.861  27.675  0.00  0.00    +0.224 C 
ATOM      5  O   LEU A   1      64.340   4.382  27.640  0.00  0.00    -0.287 OA
ENDBRANCH   1   4
BRANCH   1   6
ATOM      6  CB  LEU A   1      62.852   7.174  28.538  0.00  0.00    +0.025 C 
BRANCH   6   7
ATOM      7  CG  LEU A   1      63.014   8.682  28.331  0.00  0.00    +0.002 C 
ATOM      8  CD2 LEU A   1      62.597   9.429  29.600  0.00  0.00    +0.000 C 
ATOM      9  CD1 LEU A   1      64.468   8.983  27.967  0.00  0.00    +0.000 C 
ENDBRANCH   6   7
ENDBRANCH   1   6
TORSDOF 4
REMARK  Name = ../refined-set-2016/1k27/1k27_pocket.pdb
REMARK  224 active torsions:
REMARK  status: ('A' for Active; 'I' for Inactive)
REMARK    1  A    between atoms: _1  and  _3
REMARK    2  A    between atoms: _3  and  _4
REMARK    3  A    between atoms: _6  and  _8
REMARK    4  A    between atoms: _8  and  _9
REMARK    5  A    between atoms: _8  and  _11
REMARK    6  A    between atoms: _11  and  _12
REMARK    7  A    between atoms: _15  and  _17
REMARK    8  A    between atoms: _17  and  _18
REMARK    9  A    between atoms: _20  and  _22
REMARK   10  A    between atoms: _22  and  _23
REMARK   11  A    between atoms: _22  and  _25
REMARK   12  A    between atoms: _25  and  _26
REMARK   13  A    between atoms: _26  and  _27
REMARK   14  A    between atoms: _27  and  _28
REMARK   15  A    between atoms: _37  and  _39
REMARK   16  A    between atoms: _39  and  _40
REMARK   17  A    between atoms: _39  and  _42
REMARK   18  A    between atoms: _42  and  _43
REMARK   19  A    between atoms: _48  and  _50
REMARK   20  A    between atoms: _50  and  _51
REMARK   21  A    between atoms: _50  and  _53
REMARK   22  A    between atoms: _53  and  _54
REMARK   23  A    between atoms: _59  and  _61
REMARK   24  A    between atoms: _61  and  _62
REMARK   25  A    between atoms: _61  and  _64
REMARK   26  A    between atoms: _64  and  _65
REMARK   27  A    between atoms: _68  and  _70
REMARK   28  A    between atoms: _70  and  _71
REMARK   29  A    between atoms: _70  and  _73
REMARK   30  A    between atoms: _73  and  _74
REMARK   31  A    between atoms: _74  and  _75
REMARK   32  A    between atoms: _78  and  _79
REMARK   33  A    between atoms: _84  and  _86
REMARK   34  A    between atoms: _86  and  _87
REMARK   35  A    between atoms: _86  and  _89
REMARK   36  A    between atoms: _89  and  _90
REMARK   37  A    between atoms: _92  and  _94
REMARK   38  A    between atoms: _94  and  _95
REMARK   39  A    between atoms: _94  and  _97
REMARK   40  A    between atoms: _100  and  _102
REMARK   41  A    between atoms: _102  and  _103
REMARK   42  A    between atoms: _102  and  _105
REMARK   43  A    between atoms: _105  and  _106
REMARK   44  A    between atoms: _111  and  _112
REMARK   45  A    between atoms: _114  and  _116
REMARK   46  A    between atoms: _116  and  _117
REMARK   47  A    between atoms: _116  and  _119
REMARK   48  A    between atoms: _119  and  _120
REMARK   49  A    between atoms: _123  and  _125
REMARK   50  A    between atoms: _125  and  _126
REMARK   51  A    between atoms: _129  and  _131
REMARK   52  A    between atoms: _131  and  _132
REMARK   53  A    between atoms: _131  and  _134
REMARK   54  A    between atoms: _136  and  _138
REMARK   55  A    between atoms: _138  and  _139
REMARK   56  A    between atoms: _141  and  _143
REMARK   57  A    between atoms: _143  and  _144
REMARK   58  A    between atoms: _143  and  _146
REMARK   59  A    between atoms: _146  and  _147
REMARK   60  A    between atoms: _149  and  _151
REMARK   61  A    between atoms: _151  and  _152
REMARK   62  A    between atoms: _151  and  _154
REMARK   63  A    between atoms: _154  and  _155
REMARK   64  A    between atoms: _158  and  _160
REMARK   65  A    between atoms: _160  and  _161
REMARK   66  A    between atoms: _160  and  _163
REMARK   67  A    between atoms: _163  and  _164
REMARK   68  A    between atoms: _164  and  _165
REMARK   69  A    between atoms: _165  and  _166
REMARK   70  A    between atoms: _175  and  _177
REMARK   71  A    between atoms: _177  and  _178
REMARK   72  A    between atoms: _177  and  _180
REMARK   73  A    between atoms: _180  and  _181
REMARK   74  A    between atoms: _181  and  _182
REMARK   75  A    between atoms: _184  and  _186
REMARK   76  A    between atoms: _186  and  _187
REMARK   77  A    between atoms: _186  and  _189
REMARK   78  A    between atoms: _192  and  _194
REMARK   79  A    between atoms: _194  and  _195
REMARK   80  A    between atoms: _194  and  _197
REMARK   81  A    between atoms: _197  and  _198
REMARK   82  A    between atoms: _201  and  _203
REMARK   83  A    between atoms: _203  and  _204
REMARK   84  A    between atoms: _203  and  _206
REMARK   85  A    between atoms: _206  and  _207
REMARK   86  A    between atoms: _210  and  _212
REMARK   87  A    between atoms: _212  and  _213
REMARK   88  A    between atoms: _212  and  _215
REMARK   89  A    between atoms: _215  and  _216
REMARK   90  A    between atoms: _216  and  _217
REMARK   91  A    between atoms: _220  and  _222
REMARK   92  A    between atoms: _222  and  _223
REMARK   93  A    between atoms: _226  and  _227
REMARK   94  A    between atoms: _232  and  _234
REMARK   95  A    between atoms: _234  and  _235
REMARK   96  A    between atoms: _234  and  _237
REMARK   97  A    between atoms: _237  and  _238
REMARK   98  A    between atoms: _238  and  _239
REMARK   99  A    between atoms: _239  and  _240
REMARK  100  A    between atoms: _249  and  _251
REMARK  101  A    between atoms: _251  and  _252
REMARK  102  A    between atoms: _251  and  _254
REMARK  103  A    between atoms: _254  and  _255
REMARK  104  A    between atoms: _261  and  _263
REMARK  105  A    between atoms: _263  and  _264
REMARK  106  A    between atoms: _263  and  _266
REMARK  107  A    between atoms: _266  and  _267
REMARK  108  A    between atoms: _269  and  _271
REMARK  109  A    between atoms: _271  and  _272
REMARK  110  A    between atoms: _271  and  _274
REMARK  111  A    between atoms: _274  and  _275
REMARK  112  A    between atoms: _277  and  _279
REMARK  113  A    between atoms: _279  and  _280
REMARK  114  A    between atoms: _279  and  _282
REMARK  115  A    between atoms: _282  and  _283
REMARK  116  A    between atoms: _289  and  _291
REMARK  117  A    between atoms: _291  and  _292
REMARK  118  A    between atoms: _291  and  _294
REMARK  119  A    between atoms: _297  and  _299
REMARK  120  A    between atoms: _299  and  _300
REMARK  121  A    between atoms: _299  and  _302
REMARK  122  A    between atoms: _302  and  _303
REMARK  123  A    between atoms: _306  and  _308
REMARK  124  A    between atoms: _308  and  _309
REMARK  125  A    between atoms: _308  and  _311
REMARK  126  A    between atoms: _311  and  _312
REMARK  127  A    between atoms: _317  and  _319
REMARK  128  A    between atoms: _319  and  _320
REMARK  129  A    between atoms: _319  and  _322
REMARK  130  A    between atoms: _322  and  _323
REMARK  131  A    between atoms: _323  and  _324
REMARK  132  A    between atoms: _326  and  _328
REMARK  133  A    between atoms: _328  and  _329
REMARK  134  A    between atoms: _328  and  _331
REMARK  135  A    between atoms: _331  and  _332
REMARK  136  A    between atoms: _335  and  _337
REMARK  137  A    between atoms: _337  and  _338
REMARK  138  A    between atoms: _337  and  _340
REMARK  139  A    between atoms: _340  and  _341
REMARK  140  A    between atoms: _344  and  _346
REMARK  141  A    between atoms: _346  and  _347
REMARK  142  A    between atoms: _346  and  _349
REMARK  143  A    between atoms: _352  and  _354
REMARK  144  A    between atoms: _354  and  _355
REMARK  145  A    between atoms: _354  and  _357
REMARK  146  A    between atoms: _357  and  _358
REMARK  147  A    between atoms: _358  and  _359
REMARK  148  A    between atoms: _361  and  _363
REMARK  149  A    between atoms: _363  and  _364
REMARK  150  A    between atoms: _367  and  _369
REMARK  151  A    between atoms: _369  and  _370
REMARK  152  A    between atoms: _369  and  _372
REMARK  153  A    between atoms: _372  and  _373
REMARK  154  A    between atoms: _376  and  _378
REMARK  155  A    between atoms: _378  and  _379
REMARK  156  A    between atoms: _378  and  _381
REMARK  157  A    between atoms: _381  and  _382
REMARK  158  A    between atoms: _385  and  _387
REMARK  159  A    between atoms: _387  and  _388
REMARK  160  A    between atoms: _387  and  _390
REMARK  161  A    between atoms: _390  and  _391
REMARK  162  A    between atoms: _396  and  _397
REMARK  163  A    between atoms: _399  and  _401
REMARK  164  A    between atoms: _401  and  _402
REMARK  165  A    between atoms: _401  and  _404
REMARK  166  A    between atoms: _404  and  _405
REMARK  167  A    between atoms: _408  and  _410
REMARK  168  A    between atoms: _410  and  _411
REMARK  169  A    between atoms: _410  and  _413
REMARK  170  A    between atoms: _415  and  _417
REMARK  171  A    between atoms: _417  and  _418
REMARK  172  A    between atoms: _417  and  _420
REMARK  173  A    between atoms: _420  and  _421
REMARK  174  A    between atoms: _431  and  _433
REMARK  175  A    between atoms: _433  and  _434
REMARK  176  A    between atoms: _437  and  _439
REMARK  177  A    between atoms: _439  and  _440
REMARK  178  A    between atoms: _439  and  _442
REMARK  179  A    between atoms: _445  and  _447
REMARK  180  A    between atoms: _447  and  _448
REMARK  181  A    between atoms: _447  and  _450
REMARK  182  A    between atoms: _450  and  _451
REMARK  183  A    between atoms: _453  and  _455
REMARK  184  A    between atoms: _455  and  _456
REMARK  185  A    between atoms: _455  and  _458
REMARK  186  A    between atoms: _461  and  _463
REMARK  187  A    between atoms: _463  and  _464
REMARK  188  A    between atoms: _463  and  _466
REMARK  189  A    between atoms: _466  and  _467
REMARK  190  A    between atoms: _470  and  _472
REMARK  191  A    between atoms: _472  and  _473
REMARK  192  A    between atoms: _472  and  _475
REMARK  193  A    between atoms: _475  and  _476
REMARK  194  A    between atoms: _476  and  _477
REMARK  195  A    between atoms: _477  and  _478
REMARK  196  A    between atoms: _487  and  _489
REMARK  197  A    between atoms: _489  and  _490
REMARK  198  A    between atoms: _489  and  _492
REMARK  199  A    between atoms: _495  and  _497
REMARK  200  A    between atoms: _497  and  _498
REMARK  201  A    between atoms: _497  and  _500
REMARK  202  A    between atoms: _500  and  _501
REMARK  203  A    between atoms: _504  and  _506
REMARK  204  A    between atoms: _506  and  _507
REMARK  205  A    between atoms: _506  and  _509
REMARK  206  A    between atoms: _509  and  _510
REMARK  207  A    between atoms: _513  and  _515
REMARK  208  A    between atoms: _515  and  _516
REMARK  209  A    between atoms: _515  and  _518
REMARK  210  A    between atoms: _521  and  _523
REMARK  211  A    between atoms: _523  and  _524
REMARK  212  A    between atoms: _523  and  _526
REMARK  213  A    between atoms: _528  and  _530
REMARK  214  A    between atoms: _530  and  _531
REMARK  215  A    between atoms: _530  and  _533
REMARK  216  A    between atoms: _533  and  _534
REMARK  217  A    between atoms: _539  and  _541
REMARK  218  A    between atoms: _541  and  _542
REMARK  219  A    between atoms: _541  and  _544
REMARK  220  A    between atoms: _544  and  _545
REMARK  221  A    between atoms: _547  and  _549
REMARK  222  A    between atoms: _549  and  _550
REMARK  223  A    between atoms: _549  and  _552
REMARK  224  A    between atoms: _552  and  _553
REMARK                            x       y       z     vdW  Elec       q    Type
REMARK                         _______ _______ _______ _____ _____    ______ ____
ROOT
ATOM      1  CA  CYS A   2      53.038  17.354  36.863  0.00  0.00    +0.160 C 
ENDROOT
BRANCH   1   3
ATOM      2  C   VAL A   1      54.713  16.284  38.242  0.00  0.00    +0.238 C 
ATOM      3  N   CYS A   2      54.020  17.371  37.934  0.00  0.00    -0.297 N 
ATOM      4  H   CYS A   2      54.181  18.249  38.467  0.00  0.00    +0.150 HD
ATOM      5  O   VAL A   1      54.585  15.220  37.639  0.00  0.00    -0.274 OA
BRANCH   2   6
ATOM      6  CA  VAL A   1      55.699  16.415  39.398  0.00  0.00    +0.145 C 
BRANCH   6   7
ATOM      7  CB  VAL A   1      57.127  16.161  38.875  0.00  0.00    +0.025 C 
ATOM      8  CG2 VAL A   1      58.117  16.214  40.032  0.00  0.00    +0.002 C 
ATOM      9  CG1 VAL A   1      57.486  17.193  37.827  0.00  0.00    +0.002 C 
ENDBRANCH   6   7
BRANCH   6  10
ATOM     10  N   VAL A   1      55.331  15.449  40.422  0.00  0.00    -0.238 NA
ATOM     11  H   VAL A   1      55.475  14.436  40.233  0.00  0.00    +0.142 HD
ENDBRANCH   6  10
ENDBRANCH   2   6
ENDBRANCH   1   3
BRANCH   1  12
ATOM     12  C   CYS A   2      53.481  18.113  35.620  0.00  0.00    +0.242 C 
ATOM     13  O   CYS A   2      53.822  19.295  35.685  0.00  0.00    -0.273 OA
ATOM     14  N   HIS A   3      53.480  17.413  34.490  0.00  0.00    -0.298 N 
ATOM     15  H   HIS A   3      53.215  16.408  34.527  0.00  0.00    +0.150 HD
BRANCH  14  16
ATOM     16  CA  HIS A   3      53.835  17.995  33.202  0.00  0.00    +0.143 C 
BRANCH  16  17
ATOM     17  C   HIS A   3      52.572  17.908  32.344  0.00  0.00    +0.227 C 
ATOM     18  O   HIS A   3      52.387  16.961  31.580  0.00  0.00    -0.286 OA
ENDBRANCH  16  17
BRANCH  16  19
ATOM     19  CB  HIS A   3      54.977  17.203  32.553  0.00  0.00    +0.075 C 
BRANCH  19  20
ATOM     20  CG  HIS A   3      56.252  17.233  33.337  0.00  0.00    +0.082 A 
ATOM     21  CD2 HIS A   3      56.926  16.249  33.979  0.00  0.00    +0.115 A 
ATOM     22  NE2 HIS A   3      58.039  16.822  34.545  0.00  0.00    -0.221 NA
ATOM     23  CE1 HIS A   3      58.048  18.113  34.261  0.00  0.00    +0.199 A 
ATOM     24  ND1 HIS A   3      56.979  18.387  33.533  0.00  0.00    -0.227 NA
ENDBRANCH  19  20
ENDBRANCH  16  19
ENDBRANCH  14  16
ENDBRANCH   1  12
BRANCH   1  25
ATOM     25  CB  CYS A   2      51.709  17.931  37.368  0.00  0.00    +0.098 C 
ATOM     26  SG  CYS A   2      50.406  18.064  36.112  0.00  0.00    -0.080 S 
ENDBRANCH   1  25
TORSDOF 10
REMARK  Name = ../refined-set-2016/1k27/1k27_pocket.pdb
REMARK  224 active torsions:
REMARK  status: ('A' for Active; 'I' for Inactive)
REMARK    1  A    between atoms: _1  and  _3
REMARK    2  A    between atoms: _3  and  _4
REMARK    3  A    between atoms: _6  and  _8
REMARK    4  A    between atoms: _8  and  _9
REMARK    5  A    between atoms: _8  and  _11
REMARK    6  A    between atoms: _11  and  _12
REMARK    7  A    between atoms: _15  and  _17
REMARK    8  A    between atoms: _17  and  _18
REMARK    9  A    between atoms: _20  and  _22
REMARK   10  A    between atoms: _22  and  _23
REMARK   11  A    between atoms: _22  and  _25
REMARK   12  A    between atoms: _25  and  _26
REMARK   13  A    between atoms: _26  and  _27
REMARK   14  A    between atoms: _27  and  _28
REMARK   15  A    between atoms: _37  and  _39
REMARK   16  A    between atoms: _39  and  _40
REMARK   17  A    between atoms: _39  and  _42
REMARK   18  A    between atoms: _42  and  _43
REMARK   19  A    between atoms: _48  and  _50
REMARK   20  A    between atoms: _50  and  _51
REMARK   21  A    between atoms: _50  and  _53
REMARK   22  A    between atoms: _53  and  _54
REMARK   23  A    between atoms: _59  and  _61
REMARK   24  A    between atoms: _61  and  _62
REMARK   25  A    between atoms: _61  and  _64
REMARK   26  A    between atoms: _64  and  _65
REMARK   27  A    between atoms: _68  and  _70
REMARK   28  A    between atoms: _70  and  _71
REMARK   29  A    between atoms: _70  and  _73
REMARK   30  A    between atoms: _73  and  _74
REMARK   31  A    between atoms: _74  and  _75
REMARK   32  A    between atoms: _78  and  _79
REMARK   33  A    between atoms: _84  and  _86
REMARK   34  A    between atoms: _86  and  _87
REMARK   35  A    between atoms: _86  and  _89
REMARK   36  A    between atoms: _89  and  _90
REMARK   37  A    between atoms: _92  and  _94
REMARK   38  A    between atoms: _94  and  _95
REMARK   39  A    between atoms: _94  and  _97
REMARK   40  A    between atoms: _100  and  _102
REMARK   41  A    between atoms: _102  and  _103
REMARK   42  A    between atoms: _102  and  _105
REMARK   43  A    between atoms: _105  and  _106
REMARK   44  A    between atoms: _111  and  _112
REMARK   45  A    between atoms: _114  and  _116
REMARK   46  A    between atoms: _116  and  _117
REMARK   47  A    between atoms: _116  and  _119
REMARK   48  A    between atoms: _119  and  _120
REMARK   49  A    between atoms: _123  and  _125
REMARK   50  A    between atoms: _125  and  _126
REMARK   51  A    between atoms: _129  and  _131
REMARK   52  A    between atoms: _131  and  _132
REMARK   53  A    between atoms: _131  and  _134
REMARK   54  A    between atoms: _136  and  _138
REMARK   55  A    between atoms: _138  and  _139
REMARK   56  A    between atoms: _141  and  _143
REMARK   57  A    between atoms: _143  and  _144
REMARK   58  A    between atoms: _143  and  _146
REMARK   59  A    between atoms: _146  and  _147
REMARK   60  A    between atoms: _149  and  _151
REMARK   61  A    between atoms: _151  and  _152
REMARK   62  A    between atoms: _151  and  _154
REMARK   63  A    between atoms: _154  and  _155
REMARK   64  A    between atoms: _158  and  _160
REMARK   65  A    between atoms: _160  and  _161
REMARK   66  A    between atoms: _160  and  _163
REMARK   67  A    between atoms: _163  and  _164
REMARK   68  A    between atoms: _164  and  _165
REMARK   69  A    between atoms: _165  and  _166
REMARK   70  A    between atoms: _175  and  _177
REMARK   71  A    between atoms: _177  and  _178
REMARK   72  A    between atoms: _177  and  _180
REMARK   73  A    between atoms: _180  and  _181
REMARK   74  A    between atoms: _181  and  _182
REMARK   75  A    between atoms: _184  and  _186
REMARK   76  A    between atoms: _186  and  _187
REMARK   77  A    between atoms: _186  and  _189
REMARK   78  A    between atoms: _192  and  _194
REMARK   79  A    between atoms: _194  and  _195
REMARK   80  A    between atoms: _194  and  _197
REMARK   81  A    between atoms: _197  and  _198
REMARK   82  A    between atoms: _201  and  _203
REMARK   83  A    between atoms: _203  and  _204
REMARK   84  A    between atoms: _203  and  _206
REMARK   85  A    between atoms: _206  and  _207
REMARK   86  A    between atoms: _210  and  _212
REMARK   87  A    between atoms: _212  and  _213
REMARK   88  A    between atoms: _212  and  _215
REMARK   89  A    between atoms: _215  and  _216
REMARK   90  A    between atoms: _216  and  _217
REMARK   91  A    between atoms: _220  and  _222
REMARK   92  A    between atoms: _222  and  _223
REMARK   93  A    between atoms: _226  and  _227
REMARK   94  A    between atoms: _232  and  _234
REMARK   95  A    between atoms: _234  and  _235
REMARK   96  A    between atoms: _234  and  _237
REMARK   97  A    between atoms: _237  and  _238
REMARK   98  A    between atoms: _238  and  _239
REMARK   99  A    between atoms: _239  and  _240
REMARK  100  A    between atoms: _249  and  _251
REMARK  101  A    between atoms: _251  and  _252
REMARK  102  A    between atoms: _251  and  _254
REMARK  103  A    between atoms: _254  and  _255
REMARK  104  A    between atoms: _261  and  _263
REMARK  105  A    between atoms: _263  and  _264
REMARK  106  A    between atoms: _263  and  _266
REMARK  107  A    between atoms: _266  and  _267
REMARK  108  A    between atoms: _269  and  _271
REMARK  109  A    between atoms: _271  and  _272
REMARK  110  A    between atoms: _271  and  _274
REMARK  111  A    between atoms: _274  and  _275
REMARK  112  A    between atoms: _277  and  _279
REMARK  113  A    between atoms: _279  and  _280
REMARK  114  A    between atoms: _279  and  _282
REMARK  115  A    between atoms: _282  and  _283
REMARK  116  A    between atoms: _289  and  _291
REMARK  117  A    between atoms: _291  and  _292
REMARK  118  A    between atoms: _291  and  _294
REMARK  119  A    between atoms: _297  and  _299
REMARK  120  A    between atoms: _299  and  _300
REMARK  121  A    between atoms: _299  and  _302
REMARK  122  A    between atoms: _302  and  _303
REMARK  123  A    between atoms: _306  and  _308
REMARK  124  A    between atoms: _308  and  _309
REMARK  125  A    between atoms: _308  and  _311
REMARK  126  A    between atoms: _311  and  _312
REMARK  127  A    between atoms: _317  and  _319
REMARK  128  A    between atoms: _319  and  _320
REMARK  129  A    between atoms: _319  and  _322
REMARK  130  A    between atoms: _322  and  _323
REMARK  131  A    between atoms: _323  and  _324
REMARK  132  A    between atoms: _326  and  _328
REMARK  133  A    between atoms: _328  and  _329
REMARK  134  A    between atoms: _328  and  _331
REMARK  135  A    between atoms: _331  and  _332
REMARK  136  A    between atoms: _335  and  _337
REMARK  137  A    between atoms: _337  and  _338
REMARK  138  A    between atoms: _337  and  _340
REMARK  139  A    between atoms: _340  and  _341
REMARK  140  A    between atoms: _344  and  _346
REMARK  141  A    between atoms: _346  and  _347
REMARK  142  A    between atoms: _346  and  _349
REMARK  143  A    between atoms: _352  and  _354
REMARK  144  A    between atoms: _354  and  _355
REMARK  145  A    between atoms: _354  and  _357
REMARK  146  A    between atoms: _357  and  _358
REMARK  147  A    between atoms: _358  and  _359
REMARK  148  A    between atoms: _361  and  _363
REMARK  149  A    between atoms: _363  and  _364
REMARK  150  A    between atoms: _367  and  _369
REMARK  151  A    between atoms: _369  and  _370
REMARK  152  A    between atoms: _369  and  _372
REMARK  153  A    between atoms: _372  and  _373
REMARK  154  A    between atoms: _376  and  _378
REMARK  155  A    between atoms: _378  and  _379
REMARK  156  A    between atoms: _378  and  _381
REMARK  157  A    between atoms: _381  and  _382
REMARK  158  A    between atoms: _385  and  _387
REMARK  159  A    between atoms: _387  and  _388
REMARK  160  A    between atoms: _387  and  _390
REMARK  161  A    between atoms: _390  and  _391
REMARK  162  A    between atoms: _396  and  _397
REMARK  163  A    between atoms: _399  and  _401
REMARK  164  A    between atoms: _401  and  _402
REMARK  165  A    between atoms: _401  and  _404
REMARK  166  A    between atoms: _404  and  _405
REMARK  167  A    between atoms: _408  and  _410
REMARK  168  A    between atoms: _410  and  _411
REMARK  169  A    between atoms: _410  and  _413
REMARK  170  A    between atoms: _415  and  _417
REMARK  171  A    between atoms: _417  and  _418
REMARK  172  A    between atoms: _417  and  _420
REMARK  173  A    between atoms: _420  and  _421
REMARK  174  A    between atoms: _431  and  _433
REMARK  175  A    between atoms: _433  and  _434
REMARK  176  A    between atoms: _437  and  _439
REMARK  177  A    between atoms: _439  and  _440
REMARK  178  A    between atoms: _439  and  _442
REMARK  179  A    between atoms: _445  and  _447
REMARK  180  A    between atoms: _447  and  _448
REMARK  181  A    between atoms: _447  and  _450
REMARK  182  A    between atoms: _450  and  _451
REMARK  183  A    between atoms: _453  and  _455
REMARK  184  A    between atoms: _455  and  _456
REMARK  185  A    between atoms: _455  and  _458
REMARK  186  A    between atoms: _461  and  _463
REMARK  187  A    between atoms: _463  and  _464
REMARK  188  A    between atoms: _463  and  _466
REMARK  189  A    between atoms: _466  and  _467
REMARK  190  A    between atoms: _470  and  _472
REMARK  191  A    between atoms: _472  and  _473
REMARK  192  A    between atoms: _472  and  _475
REMARK  193  A    between atoms: _475  and  _476
REMARK  194  A    between atoms: _476  and  _477
REMARK  195  A    between atoms: _477  and  _478
REMARK  196  A    between atoms: _487  and  _489
REMARK  197  A    between atoms: _489  and  _490
REMARK  198  A    between atoms: _489  and  _492
REMARK  199  A    between atoms: _495  and  _497
REMARK  200  A    between atoms: _497  and  _498
REMARK  201  A    between atoms: _497  and  _500
REMARK  202  A    between atoms: _500  and  _501
REMARK  203  A    between atoms: _504  and  _506
REMARK  204  A    between atoms: _506  and  _507
REMARK  205  A    between atoms: _506  and  _509
REMARK  206  A    between atoms: _509  and  _510
REMARK  207  A    between atoms: _513  and  _515
REMARK  208  A    between atoms: _515  and  _516
REMARK  209  A    between atoms: _515  and  _518
REMARK  210  A    between atoms: _521  and  _523
REMARK  211  A    between atoms: _523  and  _524
REMARK  212  A    between atoms: _523  and  _526
REMARK  213  A    between atoms: _528  and  _530
REMARK  214  A    between atoms: _530  and  _531
REMARK  215  A    between atoms: _530  and  _533
REMARK  216  A    between atoms: _533  and  _534
REMARK  217  A    between atoms: _539  and  _541
REMARK  218  A    between atoms: _541  and  _542
REMARK  219  A    between atoms: _541  and  _544
REMARK  220  A    between atoms: _544  and  _545
REMARK  221  A    between atoms: _547  and  _549
REMARK  222  A    between atoms: _549  and  _550
REMARK  223  A    between atoms: _549  and  _552
REMARK  224  A    between atoms: _552  and  _553
REMARK                            x       y       z     vdW  Elec       q    Type
REMARK                         _______ _______ _______ _____ _____    ______ ____
ROOT
ATOM      1  CA  SER A   1      50.489  13.943  33.606  0.00  0.00    +0.163 C 
ENDROOT
BRANCH   1   2
ATOM      2  N   SER A   1      49.410  12.985  33.853  0.00  0.00    -0.237 NA
ATOM      3  H   SER A   1      48.503  13.326  34.230  0.00  0.00    +0.142 HD
ENDBRANCH   1   2
BRANCH   1   4
ATOM      4  CB  SER A   1      51.365  14.046  34.844  0.00  0.00    +0.227 C 
ATOM      5  OG  SER A   1      52.431  14.663  34.817  0.00  0.00    -0.287 OA
ENDBRANCH   1   4
BRANCH   1   6
ATOM      6  C   SER A   1      49.923  15.330  33.285  0.00  0.00    +0.162 C 
BRANCH   6   7
ATOM      7  O   SER A   1      49.370  15.380  31.984  0.00  0.00    -0.380 OA
ATOM      8  H   SER A   1      48.636  14.719  31.913  0.00  0.00    +0.211 HD
ENDBRANCH   6   7
ENDBRANCH   1   6
TORSDOF 4
REMARK  Name = ../refined-set-2016/1k27/1k27_pocket.pdb
REMARK  224 active torsions:
REMARK  status: ('A' for Active; 'I' for Inactive)
REMARK    1  A    between atoms: _1  and  _3
REMARK    2  A    between atoms: _3  and  _4
REMARK    3  A    between atoms: _6  and  _8
REMARK    4  A    between atoms: _8  and  _9
REMARK    5  A    between atoms: _8  and  _11
REMARK    6  A    between atoms: _11  and  _12
REMARK    7  A    between atoms: _15  and  _17
REMARK    8  A    between atoms: _17  and  _18
REMARK    9  A    between atoms: _20  and  _22
REMARK   10  A    between atoms: _22  and  _23
REMARK   11  A    between atoms: _22  and  _25
REMARK   12  A    between atoms: _25  and  _26
REMARK   13  A    between atoms: _26  and  _27
REMARK   14  A    between atoms: _27  and  _28
REMARK   15  A    between atoms: _37  and  _39
REMARK   16  A    between atoms: _39  and  _40
REMARK   17  A    between atoms: _39  and  _42
REMARK   18  A    between atoms: _42  and  _43
REMARK   19  A    between atoms: _48  and  _50
REMARK   20  A    between atoms: _50  and  _51
REMARK   21  A    between atoms: _50  and  _53
REMARK   22  A    between atoms: _53  and  _54
REMARK   23  A    between atoms: _59  and  _61
REMARK   24  A    between atoms: _61  and  _62
REMARK   25  A    between atoms: _61  and  _64
REMARK   26  A    between atoms: _64  and  _65
REMARK   27  A    between atoms: _68  and  _70
REMARK   28  A    between atoms: _70  and  _71
REMARK   29  A    between atoms: _70  and  _73
REMARK   30  A    between atoms: _73  and  _74
REMARK   31  A    between atoms: _74  and  _75
REMARK   32  A    between atoms: _78  and  _79
REMARK   33  A    between atoms: _84  and  _86
REMARK   34  A    between atoms: _86  and  _87
REMARK   35  A    between atoms: _86  and  _89
REMARK   36  A    between atoms: _89  and  _90
REMARK   37  A    between atoms: _92  and  _94
REMARK   38  A    between atoms: _94  and  _95
REMARK   39  A    between atoms: _94  and  _97
REMARK   40  A    between atoms: _100  and  _102
REMARK   41  A    between atoms: _102  and  _103
REMARK   42  A    between atoms: _102  and  _105
REMARK   43  A    between atoms: _105  and  _106
REMARK   44  A    between atoms: _111  and  _112
REMARK   45  A    between atoms: _114  and  _116
REMARK   46  A    between atoms: _116  and  _117
REMARK   47  A    between atoms: _116  and  _119
REMARK   48  A    between atoms: _119  and  _120
REMARK   49  A    between atoms: _123  and  _125
REMARK   50  A    between atoms: _125  and  _126
REMARK   51  A    between atoms: _129  and  _131
REMARK   52  A    between atoms: _131  and  _132
REMARK   53  A    between atoms: _131  and  _134
REMARK   54  A    between atoms: _136  and  _138
REMARK   55  A    between atoms: _138  and  _139
REMARK   56  A    between atoms: _141  and  _143
REMARK   57  A    between atoms: _143  and  _144
REMARK   58  A    between atoms: _143  and  _146
REMARK   59  A    between atoms: _146  and  _147
REMARK   60  A    between atoms: _149  and  _151
REMARK   61  A    between atoms: _151  and  _152
REMARK   62  A    between atoms: _151  and  _154
REMARK   63  A    between atoms: _154  and  _155
REMARK   64  A    between atoms: _158  and  _160
REMARK   65  A    between atoms: _160  and  _161
REMARK   66  A    between atoms: _160  and  _163
REMARK   67  A    between atoms: _163  and  _164
REMARK   68  A    between atoms: _164  and  _165
REMARK   69  A    between atoms: _165  and  _166
REMARK   70  A    between atoms: _175  and  _177
REMARK   71  A    between atoms: _177  and  _178
REMARK   72  A    between atoms: _177  and  _180
REMARK   73  A    between atoms: _180  and  _181
REMARK   74  A    between atoms: _181  and  _182
REMARK   75  A    between atoms: _184  and  _186
REMARK   76  A    between atoms: _186  and  _187
REMARK   77  A    between atoms: _186  and  _189
REMARK   78  A    between atoms: _192  and  _194
REMARK   79  A    between atoms: _194  and  _195
REMARK   80  A    between atoms: _194  and  _197
REMARK   81  A    between atoms: _197  and  _198
REMARK   82  A    between atoms: _201  and  _203
REMARK   83  A    between atoms: _203  and  _204
REMARK   84  A    between atoms: _203  and  _206
REMARK   85  A    between atoms: _206  and  _207
REMARK   86  A    between atoms: _210  and  _212
REMARK   87  A    between atoms: _212  and  _213
REMARK   88  A    between atoms: _212  and  _215
REMARK   89  A    between atoms: _215  and  _216
REMARK   90  A    between atoms: _216  and  _217
REMARK   91  A    between atoms: _220  and  _222
REMARK   92  A    between atoms: _222  and  _223
REMARK   93  A    between atoms: _226  and  _227
REMARK   94  A    between atoms: _232  and  _234
REMARK   95  A    between atoms: _234  and  _235
REMARK   96  A    between atoms: _234  and  _237
REMARK   97  A    between atoms: _237  and  _238
REMARK   98  A    between atoms: _238  and  _239
REMARK   99  A    between atoms: _239  and  _240
REMARK  100  A    between atoms: _249  and  _251
REMARK  101  A    between atoms: _251  and  _252
REMARK  102  A    between atoms: _251  and  _254
REMARK  103  A    between atoms: _254  and  _255
REMARK  104  A    between atoms: _261  and  _263
REMARK  105  A    between atoms: _263  and  _264
REMARK  106  A    between atoms: _263  and  _266
REMARK  107  A    between atoms: _266  and  _267
REMARK  108  A    between atoms: _269  and  _271
REMARK  109  A    between atoms: _271  and  _272
REMARK  110  A    between atoms: _271  and  _274
REMARK  111  A    between atoms: _274  and  _275
REMARK  112  A    between atoms: _277  and  _279
REMARK  113  A    between atoms: _279  and  _280
REMARK  114  A    between atoms: _279  and  _282
REMARK  115  A    between atoms: _282  and  _283
REMARK  116  A    between atoms: _289  and  _291
REMARK  117  A    between atoms: _291  and  _292
REMARK  118  A    between atoms: _291  and  _294
REMARK  119  A    between atoms: _297  and  _299
REMARK  120  A    between atoms: _299  and  _300
REMARK  121  A    between atoms: _299  and  _302
REMARK  122  A    between atoms: _302  and  _303
REMARK  123  A    between atoms: _306  and  _308
REMARK  124  A    between atoms: _308  and  _309
REMARK  125  A    between atoms: _308  and  _311
REMARK  126  A    between atoms: _311  and  _312
REMARK  127  A    between atoms: _317  and  _319
REMARK  128  A    between atoms: _319  and  _320
REMARK  129  A    between atoms: _319  and  _322
REMARK  130  A    between atoms: _322  and  _323
REMARK  131  A    between atoms: _323  and  _324
REMARK  132  A    between atoms: _326  and  _328
REMARK  133  A    between atoms: _328  and  _329
REMARK  134  A    between atoms: _328  and  _331
REMARK  135  A    between atoms: _331  and  _332
REMARK  136  A    between atoms: _335  and  _337
REMARK  137  A    between atoms: _337  and  _338
REMARK  138  A    between atoms: _337  and  _340
REMARK  139  A    between atoms: _340  and  _341
REMARK  140  A    between atoms: _344  and  _346
REMARK  141  A    between atoms: _346  and  _347
REMARK  142  A    between atoms: _346  and  _349
REMARK  143  A    between atoms: _352  and  _354
REMARK  144  A    between atoms: _354  and  _355
REMARK  145  A    between atoms: _354  and  _357
REMARK  146  A    between atoms: _357  and  _358
REMARK  147  A    between atoms: _358  and  _359
REMARK  148  A    between atoms: _361  and  _363
REMARK  149  A    between atoms: _363  and  _364
REMARK  150  A    between atoms: _367  and  _369
REMARK  151  A    between atoms: _369  and  _370
REMARK  152  A    between atoms: _369  and  _372
REMARK  153  A    between atoms: _372  and  _373
REMARK  154  A    between atoms: _376  and  _378
REMARK  155  A    between atoms: _378  and  _379
REMARK  156  A    between atoms: _378  and  _381
REMARK  157  A    between atoms: _381  and  _382
REMARK  158  A    between atoms: _385  and  _387
REMARK  159  A    between atoms: _387  and  _388
REMARK  160  A    between atoms: _387  and  _390
REMARK  161  A    between atoms: _390  and  _391
REMARK  162  A    between atoms: _396  and  _397
REMARK  163  A    between atoms: _399  and  _401
REMARK  164  A    between atoms: _401  and  _402
REMARK  165  A    between atoms: _401  and  _404
REMARK  166  A    between atoms: _404  and  _405
REMARK  167  A    between atoms: _408  and  _410
REMARK  168  A    between atoms: _410  and  _411
REMARK  169  A    between atoms: _410  and  _413
REMARK  170  A    between atoms: _415  and  _417
REMARK  171  A    between atoms: _417  and  _418
REMARK  172  A    between atoms: _417  and  _420
REMARK  173  A    between atoms: _420  and  _421
REMARK  174  A    between atoms: _431  and  _433
REMARK  175  A    between atoms: _433  and  _434
REMARK  176  A    between atoms: _437  and  _439
REMARK  177  A    between atoms: _439  and  _440
REMARK  178  A    between atoms: _439  and  _442
REMARK  179  A    between atoms: _445  and  _447
REMARK  180  A    between atoms: _447  and  _448
REMARK  181  A    between atoms: _447  and  _450
REMARK  182  A    between atoms: _450  and  _451
REMARK  183  A    between atoms: _453  and  _455
REMARK  184  A    between atoms: _455  and  _456
REMARK  185  A    between atoms: _455  and  _458
REMARK  186  A    between atoms: _461  and  _463
REMARK  187  A    between atoms: _463  and  _464
REMARK  188  A    between atoms: _463  and  _466
REMARK  189  A    between atoms: _466  and  _467
REMARK  190  A    between atoms: _470  and  _472
REMARK  191  A    between atoms: _472  and  _473
REMARK  192  A    between atoms: _472  and  _475
REMARK  193  A    between atoms: _475  and  _476
REMARK  194  A    between atoms: _476  and  _477
REMARK  195  A    between atoms: _477  and  _478
REMARK  196  A    between atoms: _487  and  _489
REMARK  197  A    between atoms: _489  and  _490
REMARK  198  A    between atoms: _489  and  _492
REMARK  199  A    between atoms: _495  and  _497
REMARK  200  A    between atoms: _497  and  _498
REMARK  201  A    between atoms: _497  and  _500
REMARK  202  A    between atoms: _500  and  _501
REMARK  203  A    between atoms: _504  and  _506
REMARK  204  A    between atoms: _506  and  _507
REMARK  205  A    between atoms: _506  and  _509
REMARK  206  A    between atoms: _509  and  _510
REMARK  207  A    between atoms: _513  and  _515
REMARK  208  A    between atoms: _515  and  _516
REMARK  209  A    between atoms: _515  and  _518
REMARK  210  A    between atoms: _521  and  _523
REMARK  211  A    between atoms: _523  and  _524
REMARK  212  A    between atoms: _523  and  _526
REMARK  213  A    between atoms: _528  and  _530
REMARK  214  A    between atoms: _530  and  _531
REMARK  215  A    between atoms: _530  and  _533
REMARK  216  A    between atoms: _533  and  _534
REMARK  217  A    between atoms: _539  and  _541
REMARK  218  A    between atoms: _541  and  _542
REMARK  219  A    between atoms: _541  and  _544
REMARK  220  A    between atoms: _544  and  _545
REMARK  221  A    between atoms: _547  and  _549
REMARK  222  A    between atoms: _549  and  _550
REMARK  223  A    between atoms: _549  and  _552
REMARK  224  A    between atoms: _552  and  _553
REMARK                            x       y       z     vdW  Elec       q    Type
REMARK                         _______ _______ _______ _____ _____    ______ ____
ROOT
ATOM      1  CA  LEU A   1      54.881  11.687  38.030  0.00  0.00    +0.133 C 
ENDROOT
BRANCH   1   2
ATOM      2  N   LEU A   1      53.845  12.676  37.760  0.00  0.00    -0.239 NA
ATOM      3  H   LEU A   1      54.075  13.685  37.860  0.00  0.00    +0.142 HD
ENDBRANCH   1   2
BRANCH   1   4
ATOM      4  C   LEU A   1      54.950  11.497  39.539  0.00  0.00    +0.224 C 
ATOM      5  O   LEU A   1      55.358  12.404  40.264  0.00  0.00    -0.287 OA
ENDBRANCH   1   4
BRANCH   1   6
ATOM      6  CB  LEU A   1      56.239  12.176  37.518  0.00  0.00    +0.025 C 
BRANCH   6   7
ATOM      7  CG  LEU A   1      56.452  12.208  36.005  0.00  0.00    +0.002 C 
ATOM      8  CD2 LEU A   1      57.666  13.064  35.674  0.00  0.00    +0.000 C 
ATOM      9  CD1 LEU A   1      56.628  10.789  35.490  0.00  0.00    +0.000 C 
ENDBRANCH   6   7
ENDBRANCH   1   6
TORSDOF 4
REMARK  Name = ../refined-set-2016/1k27/1k27_pocket.pdb
REMARK  224 active torsions:
REMARK  status: ('A' for Active; 'I' for Inactive)
REMARK    1  A    between atoms: _1  and  _3
REMARK    2  A    between atoms: _3  and  _4
REMARK    3  A    between atoms: _6  and  _8
REMARK    4  A    between atoms: _8  and  _9
REMARK    5  A    between atoms: _8  and  _11
REMARK    6  A    between atoms: _11  and  _12
REMARK    7  A    between atoms: _15  and  _17
REMARK    8  A    between atoms: _17  and  _18
REMARK    9  A    between atoms: _20  and  _22
REMARK   10  A    between atoms: _22  and  _23
REMARK   11  A    between atoms: _22  and  _25
REMARK   12  A    between atoms: _25  and  _26
REMARK   13  A    between atoms: _26  and  _27
REMARK   14  A    between atoms: _27  and  _28
REMARK   15  A    between atoms: _37  and  _39
REMARK   16  A    between atoms: _39  and  _40
REMARK   17  A    between atoms: _39  and  _42
REMARK   18  A    between atoms: _42  and  _43
REMARK   19  A    between atoms: _48  and  _50
REMARK   20  A    between atoms: _50  and  _51
REMARK   21  A    between atoms: _50  and  _53
REMARK   22  A    between atoms: _53  and  _54
REMARK   23  A    between atoms: _59  and  _61
REMARK   24  A    between atoms: _61  and  _62
REMARK   25  A    between atoms: _61  and  _64
REMARK   26  A    between atoms: _64  and  _65
REMARK   27  A    between atoms: _68  and  _70
REMARK   28  A    between atoms: _70  and  _71
REMARK   29  A    between atoms: _70  and  _73
REMARK   30  A    between atoms: _73  and  _74
REMARK   31  A    between atoms: _74  and  _75
REMARK   32  A    between atoms: _78  and  _79
REMARK   33  A    between atoms: _84  and  _86
REMARK   34  A    between atoms: _86  and  _87
REMARK   35  A    between atoms: _86  and  _89
REMARK   36  A    between atoms: _89  and  _90
REMARK   37  A    between atoms: _92  and  _94
REMARK   38  A    between atoms: _94  and  _95
REMARK   39  A    between atoms: _94  and  _97
REMARK   40  A    between atoms: _100  and  _102
REMARK   41  A    between atoms: _102  and  _103
REMARK   42  A    between atoms: _102  and  _105
REMARK   43  A    between atoms: _105  and  _106
REMARK   44  A    between atoms: _111  and  _112
REMARK   45  A    between atoms: _114  and  _116
REMARK   46  A    between atoms: _116  and  _117
REMARK   47  A    between atoms: _116  and  _119
REMARK   48  A    between atoms: _119  and  _120
REMARK   49  A    between atoms: _123  and  _125
REMARK   50  A    between atoms: _125  and  _126
REMARK   51  A    between atoms: _129  and  _131
REMARK   52  A    between atoms: _131  and  _132
REMARK   53  A    between atoms: _131  and  _134
REMARK   54  A    between atoms: _136  and  _138
REMARK   55  A    between atoms: _138  and  _139
REMARK   56  A    between atoms: _141  and  _143
REMARK   57  A    between atoms: _143  and  _144
REMARK   58  A    between atoms: _143  and  _146
REMARK   59  A    between atoms: _146  and  _147
REMARK   60  A    between atoms: _149  and  _151
REMARK   61  A    between atoms: _151  and  _152
REMARK   62  A    between atoms: _151  and  _154
REMARK   63  A    between atoms: _154  and  _155
REMARK   64  A    between atoms: _158  and  _160
REMARK   65  A    between atoms: _160  and  _161
REMARK   66  A    between atoms: _160  and  _163
REMARK   67  A    between atoms: _163  and  _164
REMARK   68  A    between atoms: _164  and  _165
REMARK   69  A    between atoms: _165  and  _166
REMARK   70  A    between atoms: _175  and  _177
REMARK   71  A    between atoms: _177  and  _178
REMARK   72  A    between atoms: _177  and  _180
REMARK   73  A    between atoms: _180  and  _181
REMARK   74  A    between atoms: _181  and  _182
REMARK   75  A    between atoms: _184  and  _186
REMARK   76  A    between atoms: _186  and  _187
REMARK   77  A    between atoms: _186  and  _189
REMARK   78  A    between atoms: _192  and  _194
REMARK   79  A    between atoms: _194  and  _195
REMARK   80  A    between atoms: _194  and  _197
REMARK   81  A    between atoms: _197  and  _198
REMARK   82  A    between atoms: _201  and  _203
REMARK   83  A    between atoms: _203  and  _204
REMARK   84  A    between atoms: _203  and  _206
REMARK   85  A    between atoms: _206  and  _207
REMARK   86  A    between atoms: _210  and  _212
REMARK   87  A    between atoms: _212  and  _213
REMARK   88  A    between atoms: _212  and  _215
REMARK   89  A    between atoms: _215  and  _216
REMARK   90  A    between atoms: _216  and  _217
REMARK   91  A    between atoms: _220  and  _222
REMARK   92  A    between atoms: _222  and  _223
REMARK   93  A    between atoms: _226  and  _227
REMARK   94  A    between atoms: _232  and  _234
REMARK   95  A    between atoms: _234  and  _235
REMARK   96  A    between atoms: _234  and  _237
REMARK   97  A    between atoms: _237  and  _238
REMARK   98  A    between atoms: _238  and  _239
REMARK   99  A    between atoms: _239  and  _240
REMARK  100  A    between atoms: _249  and  _251
REMARK  101  A    between atoms: _251  and  _252
REMARK  102  A    between atoms: _251  and  _254
REMARK  103  A    between atoms: _254  and  _255
REMARK  104  A    between atoms: _261  and  _263
REMARK  105  A    between atoms: _263  and  _264
REMARK  106  A    between atoms: _263  and  _266
REMARK  107  A    between atoms: _266  and  _267
REMARK  108  A    between atoms: _269  and  _271
REMARK  109  A    between atoms: _271  and  _272
REMARK  110  A    between atoms: _271  and  _274
REMARK  111  A    between atoms: _274  and  _275
REMARK  112  A    between atoms: _277  and  _279
REMARK  113  A    between atoms: _279  and  _280
REMARK  114  A    between atoms: _279  and  _282
REMARK  115  A    between atoms: _282  and  _283
REMARK  116  A    between atoms: _289  and  _291
REMARK  117  A    between atoms: _291  and  _292
REMARK  118  A    between atoms: _291  and  _294
REMARK  119  A    between atoms: _297  and  _299
REMARK  120  A    between atoms: _299  and  _300
REMARK  121  A    between atoms: _299  and  _302
REMARK  122  A    between atoms: _302  and  _303
REMARK  123  A    between atoms: _306  and  _308
REMARK  124  A    between atoms: _308  and  _309
REMARK  125  A    between atoms: _308  and  _311
REMARK  126  A    between atoms: _311  and  _312
REMARK  127  A    between atoms: _317  and  _319
REMARK  128  A    between atoms: _319  and  _320
REMARK  129  A    between atoms: _319  and  _322
REMARK  130  A    between atoms: _322  and  _323
REMARK  131  A    between atoms: _323  and  _324
REMARK  132  A    between atoms: _326  and  _328
REMARK  133  A    between atoms: _328  and  _329
REMARK  134  A    between atoms: _328  and  _331
REMARK  135  A    between atoms: _331  and  _332
REMARK  136  A    between atoms: _335  and  _337
REMARK  137  A    between atoms: _337  and  _338
REMARK  138  A    between atoms: _337  and  _340
REMARK  139  A    between atoms: _340  and  _341
REMARK  140  A    between atoms: _344  and  _346
REMARK  141  A    between atoms: _346  and  _347
REMARK  142  A    between atoms: _346  and  _349
REMARK  143  A    between atoms: _352  and  _354
REMARK  144  A    between atoms: _354  and  _355
REMARK  145  A    between atoms: _354  and  _357
REMARK  146  A    between atoms: _357  and  _358
REMARK  147  A    between atoms: _358  and  _359
REMARK  148  A    between atoms: _361  and  _363
REMARK  149  A    between atoms: _363  and  _364
REMARK  150  A    between atoms: _367  and  _369
REMARK  151  A    between atoms: _369  and  _370
REMARK  152  A    between atoms: _369  and  _372
REMARK  153  A    between atoms: _372  and  _373
REMARK  154  A    between atoms: _376  and  _378
REMARK  155  A    between atoms: _378  and  _379
REMARK  156  A    between atoms: _378  and  _381
REMARK  157  A    between atoms: _381  and  _382
REMARK  158  A    between atoms: _385  and  _387
REMARK  159  A    between atoms: _387  and  _388
REMARK  160  A    between atoms: _387  and  _390
REMARK  161  A    between atoms: _390  and  _391
REMARK  162  A    between atoms: _396  and  _397
REMARK  163  A    between atoms: _399  and  _401
REMARK  164  A    between atoms: _401  and  _402
REMARK  165  A    between atoms: _401  and  _404
REMARK  166  A    between atoms: _404  and  _405
REMARK  167  A    between atoms: _408  and  _410
REMARK  168  A    between atoms: _410  and  _411
REMARK  169  A    between atoms: _410  and  _413
REMARK  170  A    between atoms: _415  and  _417
REMARK  171  A    between atoms: _417  and  _418
REMARK  172  A    between atoms: _417  and  _420
REMARK  173  A    between atoms: _420  and  _421
REMARK  174  A    between atoms: _431  and  _433
REMARK  175  A    between atoms: _433  and  _434
REMARK  176  A    between atoms: _437  and  _439
REMARK  177  A    between atoms: _439  and  _440
REMARK  178  A    between atoms: _439  and  _442
REMARK  179  A    between atoms: _445  and  _447
REMARK  180  A    between atoms: _447  and  _448
REMARK  181  A    between atoms: _447  and  _450
REMARK  182  A    between atoms: _450  and  _451
REMARK  183  A    between atoms: _453  and  _455
REMARK  184  A    between atoms: _455  and  _456
REMARK  185  A    between atoms: _455  and  _458
REMARK  186  A    between atoms: _461  and  _463
REMARK  187  A    between atoms: _463  and  _464
REMARK  188  A    between atoms: _463  and  _466
REMARK  189  A    between atoms: _466  and  _467
REMARK  190  A    between atoms: _470  and  _472
REMARK  191  A    between atoms: _472  and  _473
REMARK  192  A    between atoms: _472  and  _475
REMARK  193  A    between atoms: _475  and  _476
REMARK  194  A    between atoms: _476  and  _477
REMARK  195  A    between atoms: _477  and  _478
REMARK  196  A    between atoms: _487  and  _489
REMARK  197  A    between atoms: _489  and  _490
REMARK  198  A    between atoms: _489  and  _492
REMARK  199  A    between atoms: _495  and  _497
REMARK  200  A    between atoms: _497  and  _498
REMARK  201  A    between atoms: _497  and  _500
REMARK  202  A    between atoms: _500  and  _501
REMARK  203  A    between atoms: _504  and  _506
REMARK  204  A    between atoms: _506  and  _507
REMARK  205  A    between atoms: _506  and  _509
REMARK  206  A    between atoms: _509  and  _510
REMARK  207  A    between atoms: _513  and  _515
REMARK  208  A    between atoms: _515  and  _516
REMARK  209  A    between atoms: _515  and  _518
REMARK  210  A    between atoms: _521  and  _523
REMARK  211  A    between atoms: _523  and  _524
REMARK  212  A    between atoms: _523  and  _526
REMARK  213  A    between atoms: _528  and  _530
REMARK  214  A    between atoms: _530  and  _531
REMARK  215  A    between atoms: _530  and  _533
REMARK  216  A    between atoms: _533  and  _534
REMARK  217  A    between atoms: _539  and  _541
REMARK  218  A    between atoms: _541  and  _542
REMARK  219  A    between atoms: _541  and  _544
REMARK  220  A    between atoms: _544  and  _545
REMARK  221  A    between atoms: _547  and  _549
REMARK  222  A    between atoms: _549  and  _550
REMARK  223  A    between atoms: _549  and  _552
REMARK  224  A    between atoms: _552  and  _553
REMARK                            x       y       z     vdW  Elec       q    Type
REMARK                         _______ _______ _______ _____ _____    ______ ____
ROOT
ATOM      1  O   HOH     1      57.302  21.570  25.161  0.00  0.00    +0.000 OA
ENDROOT
TORSDOF 0
REMARK  Name = ../refined-set-2016/1k27/1k27_pocket.pdb
REMARK  224 active torsions:
REMARK  status: ('A' for Active; 'I' for Inactive)
REMARK    1  A    between atoms: _1  and  _3
REMARK    2  A    between atoms: _3  and  _4
REMARK    3  A    between atoms: _6  and  _8
REMARK    4  A    between atoms: _8  and  _9
REMARK    5  A    between atoms: _8  and  _11
REMARK    6  A    between atoms: _11  and  _12
REMARK    7  A    between atoms: _15  and  _17
REMARK    8  A    between atoms: _17  and  _18
REMARK    9  A    between atoms: _20  and  _22
REMARK   10  A    between atoms: _22  and  _23
REMARK   11  A    between atoms: _22  and  _25
REMARK   12  A    between atoms: _25  and  _26
REMARK   13  A    between atoms: _26  and  _27
REMARK   14  A    between atoms: _27  and  _28
REMARK   15  A    between atoms: _37  and  _39
REMARK   16  A    between atoms: _39  and  _40
REMARK   17  A    between atoms: _39  and  _42
REMARK   18  A    between atoms: _42  and  _43
REMARK   19  A    between atoms: _48  and  _50
REMARK   20  A    between atoms: _50  and  _51
REMARK   21  A    between atoms: _50  and  _53
REMARK   22  A    between atoms: _53  and  _54
REMARK   23  A    between atoms: _59  and  _61
REMARK   24  A    between atoms: _61  and  _62
REMARK   25  A    between atoms: _61  and  _64
REMARK   26  A    between atoms: _64  and  _65
REMARK   27  A    between atoms: _68  and  _70
REMARK   28  A    between atoms: _70  and  _71
REMARK   29  A    between atoms: _70  and  _73
REMARK   30  A    between atoms: _73  and  _74
REMARK   31  A    between atoms: _74  and  _75
REMARK   32  A    between atoms: _78  and  _79
REMARK   33  A    between atoms: _84  and  _86
REMARK   34  A    between atoms: _86  and  _87
REMARK   35  A    between atoms: _86  and  _89
REMARK   36  A    between atoms: _89  and  _90
REMARK   37  A    between atoms: _92  and  _94
REMARK   38  A    between atoms: _94  and  _95
REMARK   39  A    between atoms: _94  and  _97
REMARK   40  A    between atoms: _100  and  _102
REMARK   41  A    between atoms: _102  and  _103
REMARK   42  A    between atoms: _102  and  _105
REMARK   43  A    between atoms: _105  and  _106
REMARK   44  A    between atoms: _111  and  _112
REMARK   45  A    between atoms: _114  and  _116
REMARK   46  A    between atoms: _116  and  _117
REMARK   47  A    between atoms: _116  and  _119
REMARK   48  A    between atoms: _119  and  _120
REMARK   49  A    between atoms: _123  and  _125
REMARK   50  A    between atoms: _125  and  _126
REMARK   51  A    between atoms: _129  and  _131
REMARK   52  A    between atoms: _131  and  _132
REMARK   53  A    between atoms: _131  and  _134
REMARK   54  A    between atoms: _136  and  _138
REMARK   55  A    between atoms: _138  and  _139
REMARK   56  A    between atoms: _141  and  _143
REMARK   57  A    between atoms: _143  and  _144
REMARK   58  A    between atoms: _143  and  _146
REMARK   59  A    between atoms: _146  and  _147
REMARK   60  A    between atoms: _149  and  _151
REMARK   61  A    between atoms: _151  and  _152
REMARK   62  A    between atoms: _151  and  _154
REMARK   63  A    between atoms: _154  and  _155
REMARK   64  A    between atoms: _158  and  _160
REMARK   65  A    between atoms: _160  and  _161
REMARK   66  A    between atoms: _160  and  _163
REMARK   67  A    between atoms: _163  and  _164
REMARK   68  A    between atoms: _164  and  _165
REMARK   69  A    between atoms: _165  and  _166
REMARK   70  A    between atoms: _175  and  _177
REMARK   71  A    between atoms: _177  and  _178
REMARK   72  A    between atoms: _177  and  _180
REMARK   73  A    between atoms: _180  and  _181
REMARK   74  A    between atoms: _181  and  _182
REMARK   75  A    between atoms: _184  and  _186
REMARK   76  A    between atoms: _186  and  _187
REMARK   77  A    between atoms: _186  and  _189
REMARK   78  A    between atoms: _192  and  _194
REMARK   79  A    between atoms: _194  and  _195
REMARK   80  A    between atoms: _194  and  _197
REMARK   81  A    between atoms: _197  and  _198
REMARK   82  A    between atoms: _201  and  _203
REMARK   83  A    between atoms: _203  and  _204
REMARK   84  A    between atoms: _203  and  _206
REMARK   85  A    between atoms: _206  and  _207
REMARK   86  A    between atoms: _210  and  _212
REMARK   87  A    between atoms: _212  and  _213
REMARK   88  A    between atoms: _212  and  _215
REMARK   89  A    between atoms: _215  and  _216
REMARK   90  A    between atoms: _216  and  _217
REMARK   91  A    between atoms: _220  and  _222
REMARK   92  A    between atoms: _222  and  _223
REMARK   93  A    between atoms: _226  and  _227
REMARK   94  A    between atoms: _232  and  _234
REMARK   95  A    between atoms: _234  and  _235
REMARK   96  A    between atoms: _234  and  _237
REMARK   97  A    between atoms: _237  and  _238
REMARK   98  A    between atoms: _238  and  _239
REMARK   99  A    between atoms: _239  and  _240
REMARK  100  A    between atoms: _249  and  _251
REMARK  101  A    between atoms: _251  and  _252
REMARK  102  A    between atoms: _251  and  _254
REMARK  103  A    between atoms: _254  and  _255
REMARK  104  A    between atoms: _261  and  _263
REMARK  105  A    between atoms: _263  and  _264
REMARK  106  A    between atoms: _263  and  _266
REMARK  107  A    between atoms: _266  and  _267
REMARK  108  A    between atoms: _269  and  _271
REMARK  109  A    between atoms: _271  and  _272
REMARK  110  A    between atoms: _271  and  _274
REMARK  111  A    between atoms: _274  and  _275
REMARK  112  A    between atoms: _277  and  _279
REMARK  113  A    between atoms: _279  and  _280
REMARK  114  A    between atoms: _279  and  _282
REMARK  115  A    between atoms: _282  and  _283
REMARK  116  A    between atoms: _289  and  _291
REMARK  117  A    between atoms: _291  and  _292
REMARK  118  A    between atoms: _291  and  _294
REMARK  119  A    between atoms: _297  and  _299
REMARK  120  A    between atoms: _299  and  _300
REMARK  121  A    between atoms: _299  and  _302
REMARK  122  A    between atoms: _302  and  _303
REMARK  123  A    between atoms: _306  and  _308
REMARK  124  A    between atoms: _308  and  _309
REMARK  125  A    between atoms: _308  and  _311
REMARK  126  A    between atoms: _311  and  _312
REMARK  127  A    between atoms: _317  and  _319
REMARK  128  A    between atoms: _319  and  _320
REMARK  129  A    between atoms: _319  and  _322
REMARK  130  A    between atoms: _322  and  _323
REMARK  131  A    between atoms: _323  and  _324
REMARK  132  A    between atoms: _326  and  _328
REMARK  133  A    between atoms: _328  and  _329
REMARK  134  A    between atoms: _328  and  _331
REMARK  135  A    between atoms: _331  and  _332
REMARK  136  A    between atoms: _335  and  _337
REMARK  137  A    between atoms: _337  and  _338
REMARK  138  A    between atoms: _337  and  _340
REMARK  139  A    between atoms: _340  and  _341
REMARK  140  A    between atoms: _344  and  _346
REMARK  141  A    between atoms: _346  and  _347
REMARK  142  A    between atoms: _346  and  _349
REMARK  143  A    between atoms: _352  and  _354
REMARK  144  A    between atoms: _354  and  _355
REMARK  145  A    between atoms: _354  and  _357
REMARK  146  A    between atoms: _357  and  _358
REMARK  147  A    between atoms: _358  and  _359
REMARK  148  A    between atoms: _361  and  _363
REMARK  149  A    between atoms: _363  and  _364
REMARK  150  A    between atoms: _367  and  _369
REMARK  151  A    between atoms: _369  and  _370
REMARK  152  A    between atoms: _369  and  _372
REMARK  153  A    between atoms: _372  and  _373
REMARK  154  A    between atoms: _376  and  _378
REMARK  155  A    between atoms: _378  and  _379
REMARK  156  A    between atoms: _378  and  _381
REMARK  157  A    between atoms: _381  and  _382
REMARK  158  A    between atoms: _385  and  _387
REMARK  159  A    between atoms: _387  and  _388
REMARK  160  A    between atoms: _387  and  _390
REMARK  161  A    between atoms: _390  and  _391
REMARK  162  A    between atoms: _396  and  _397
REMARK  163  A    between atoms: _399  and  _401
REMARK  164  A    between atoms: _401  and  _402
REMARK  165  A    between atoms: _401  and  _404
REMARK  166  A    between atoms: _404  and  _405
REMARK  167  A    between atoms: _408  and  _410
REMARK  168  A    between atoms: _410  and  _411
REMARK  169  A    between atoms: _410  and  _413
REMARK  170  A    between atoms: _415  and  _417
REMARK  171  A    between atoms: _417  and  _418
REMARK  172  A    between atoms: _417  and  _420
REMARK  173  A    between atoms: _420  and  _421
REMARK  174  A    between atoms: _431  and  _433
REMARK  175  A    between atoms: _433  and  _434
REMARK  176  A    between atoms: _437  and  _439
REMARK  177  A    between atoms: _439  and  _440
REMARK  178  A    between atoms: _439  and  _442
REMARK  179  A    between atoms: _445  and  _447
REMARK  180  A    between atoms: _447  and  _448
REMARK  181  A    between atoms: _447  and  _450
REMARK  182  A    between atoms: _450  and  _451
REMARK  183  A    between atoms: _453  and  _455
REMARK  184  A    between atoms: _455  and  _456
REMARK  185  A    between atoms: _455  and  _458
REMARK  186  A    between atoms: _461  and  _463
REMARK  187  A    between atoms: _463  and  _464
REMARK  188  A    between atoms: _463  and  _466
REMARK  189  A    between atoms: _466  and  _467
REMARK  190  A    between atoms: _470  and  _472
REMARK  191  A    between atoms: _472  and  _473
REMARK  192  A    between atoms: _472  and  _475
REMARK  193  A    between atoms: _475  and  _476
REMARK  194  A    between atoms: _476  and  _477
REMARK  195  A    between atoms: _477  and  _478
REMARK  196  A    between atoms: _487  and  _489
REMARK  197  A    between atoms: _489  and  _490
REMARK  198  A    between atoms: _489  and  _492
REMARK  199  A    between atoms: _495  and  _497
REMARK  200  A    between atoms: _497  and  _498
REMARK  201  A    between atoms: _497  and  _500
REMARK  202  A    between atoms: _500  and  _501
REMARK  203  A    between atoms: _504  and  _506
REMARK  204  A    between atoms: _506  and  _507
REMARK  205  A    between atoms: _506  and  _509
REMARK  206  A    between atoms: _509  and  _510
REMARK  207  A    between atoms: _513  and  _515
REMARK  208  A    between atoms: _515  and  _516
REMARK  209  A    between atoms: _515  and  _518
REMARK  210  A    between atoms: _521  and  _523
REMARK  211  A    between atoms: _523  and  _524
REMARK  212  A    between atoms: _523  and  _526
REMARK  213  A    between atoms: _528  and  _530
REMARK  214  A    between atoms: _530  and  _531
REMARK  215  A    between atoms: _530  and  _533
REMARK  216  A    between atoms: _533  and  _534
REMARK  217  A    between atoms: _539  and  _541
REMARK  218  A    between atoms: _541  and  _542
REMARK  219  A    between atoms: _541  and  _544
REMARK  220  A    between atoms: _544  and  _545
REMARK  221  A    between atoms: _547  and  _549
REMARK  222  A    between atoms: _549  and  _550
REMARK  223  A    between atoms: _549  and  _552
REMARK  224  A    between atoms: _552  and  _553
REMARK                            x       y       z     vdW  Elec       q    Type
REMARK                         _______ _______ _______ _____ _____    ______ ____
ROOT
ATOM      1  O   HOH     1      56.767  26.529  26.809  0.00  0.00    +0.000 OA
ENDROOT
TORSDOF 0
REMARK  Name = ../refined-set-2016/1k27/1k27_pocket.pdb
REMARK  224 active torsions:
REMARK  status: ('A' for Active; 'I' for Inactive)
REMARK    1  A    between atoms: _1  and  _3
REMARK    2  A    between atoms: _3  and  _4
REMARK    3  A    between atoms: _6  and  _8
REMARK    4  A    between atoms: _8  and  _9
REMARK    5  A    between atoms: _8  and  _11
REMARK    6  A    between atoms: _11  and  _12
REMARK    7  A    between atoms: _15  and  _17
REMARK    8  A    between atoms: _17  and  _18
REMARK    9  A    between atoms: _20  and  _22
REMARK   10  A    between atoms: _22  and  _23
REMARK   11  A    between atoms: _22  and  _25
REMARK   12  A    between atoms: _25  and  _26
REMARK   13  A    between atoms: _26  and  _27
REMARK   14  A    between atoms: _27  and  _28
REMARK   15  A    between atoms: _37  and  _39
REMARK   16  A    between atoms: _39  and  _40
REMARK   17  A    between atoms: _39  and  _42
REMARK   18  A    between atoms: _42  and  _43
REMARK   19  A    between atoms: _48  and  _50
REMARK   20  A    between atoms: _50  and  _51
REMARK   21  A    between atoms: _50  and  _53
REMARK   22  A    between atoms: _53  and  _54
REMARK   23  A    between atoms: _59  and  _61
REMARK   24  A    between atoms: _61  and  _62
REMARK   25  A    between atoms: _61  and  _64
REMARK   26  A    between atoms: _64  and  _65
REMARK   27  A    between atoms: _68  and  _70
REMARK   28  A    between atoms: _70  and  _71
REMARK   29  A    between atoms: _70  and  _73
REMARK   30  A    between atoms: _73  and  _74
REMARK   31  A    between atoms: _74  and  _75
REMARK   32  A    between atoms: _78  and  _79
REMARK   33  A    between atoms: _84  and  _86
REMARK   34  A    between atoms: _86  and  _87
REMARK   35  A    between atoms: _86  and  _89
REMARK   36  A    between atoms: _89  and  _90
REMARK   37  A    between atoms: _92  and  _94
REMARK   38  A    between atoms: _94  and  _95
REMARK   39  A    between atoms: _94  and  _97
REMARK   40  A    between atoms: _100  and  _102
REMARK   41  A    between atoms: _102  and  _103
REMARK   42  A    between atoms: _102  and  _105
REMARK   43  A    between atoms: _105  and  _106
REMARK   44  A    between atoms: _111  and  _112
REMARK   45  A    between atoms: _114  and  _116
REMARK   46  A    between atoms: _116  and  _117
REMARK   47  A    between atoms: _116  and  _119
REMARK   48  A    between atoms: _119  and  _120
REMARK   49  A    between atoms: _123  and  _125
REMARK   50  A    between atoms: _125  and  _126
REMARK   51  A    between atoms: _129  and  _131
REMARK   52  A    between atoms: _131  and  _132
REMARK   53  A    between atoms: _131  and  _134
REMARK   54  A    between atoms: _136  and  _138
REMARK   55  A    between atoms: _138  and  _139
REMARK   56  A    between atoms: _141  and  _143
REMARK   57  A    between atoms: _143  and  _144
REMARK   58  A    between atoms: _143  and  _146
REMARK   59  A    between atoms: _146  and  _147
REMARK   60  A    between atoms: _149  and  _151
REMARK   61  A    between atoms: _151  and  _152
REMARK   62  A    between atoms: _151  and  _154
REMARK   63  A    between atoms: _154  and  _155
REMARK   64  A    between atoms: _158  and  _160
REMARK   65  A    between atoms: _160  and  _161
REMARK   66  A    between atoms: _160  and  _163
REMARK   67  A    between atoms: _163  and  _164
REMARK   68  A    between atoms: _164  and  _165
REMARK   69  A    between atoms: _165  and  _166
REMARK   70  A    between atoms: _175  and  _177
REMARK   71  A    between atoms: _177  and  _178
REMARK   72  A    between atoms: _177  and  _180
REMARK   73  A    between atoms: _180  and  _181
REMARK   74  A    between atoms: _181  and  _182
REMARK   75  A    between atoms: _184  and  _186
REMARK   76  A    between atoms: _186  and  _187
REMARK   77  A    between atoms: _186  and  _189
REMARK   78  A    between atoms: _192  and  _194
REMARK   79  A    between atoms: _194  and  _195
REMARK   80  A    between atoms: _194  and  _197
REMARK   81  A    between atoms: _197  and  _198
REMARK   82  A    between atoms: _201  and  _203
REMARK   83  A    between atoms: _203  and  _204
REMARK   84  A    between atoms: _203  and  _206
REMARK   85  A    between atoms: _206  and  _207
REMARK   86  A    between atoms: _210  and  _212
REMARK   87  A    between atoms: _212  and  _213
REMARK   88  A    between atoms: _212  and  _215
REMARK   89  A    between atoms: _215  and  _216
REMARK   90  A    between atoms: _216  and  _217
REMARK   91  A    between atoms: _220  and  _222
REMARK   92  A    between atoms: _222  and  _223
REMARK   93  A    between atoms: _226  and  _227
REMARK   94  A    between atoms: _232  and  _234
REMARK   95  A    between atoms: _234  and  _235
REMARK   96  A    between atoms: _234  and  _237
REMARK   97  A    between atoms: _237  and  _238
REMARK   98  A    between atoms: _238  and  _239
REMARK   99  A    between atoms: _239  and  _240
REMARK  100  A    between atoms: _249  and  _251
REMARK  101  A    between atoms: _251  and  _252
REMARK  102  A    between atoms: _251  and  _254
REMARK  103  A    between atoms: _254  and  _255
REMARK  104  A    between atoms: _261  and  _263
REMARK  105  A    between atoms: _263  and  _264
REMARK  106  A    between atoms: _263  and  _266
REMARK  107  A    between atoms: _266  and  _267
REMARK  108  A    between atoms: _269  and  _271
REMARK  109  A    between atoms: _271  and  _272
REMARK  110  A    between atoms: _271  and  _274
REMARK  111  A    between atoms: _274  and  _275
REMARK  112  A    between atoms: _277  and  _279
REMARK  113  A    between atoms: _279  and  _280
REMARK  114  A    between atoms: _279  and  _282
REMARK  115  A    between atoms: _282  and  _283
REMARK  116  A    between atoms: _289  and  _291
REMARK  117  A    between atoms: _291  and  _292
REMARK  118  A    between atoms: _291  and  _294
REMARK  119  A    between atoms: _297  and  _299
REMARK  120  A    between atoms: _299  and  _300
REMARK  121  A    between atoms: _299  and  _302
REMARK  122  A    between atoms: _302  and  _303
REMARK  123  A    between atoms: _306  and  _308
REMARK  124  A    between atoms: _308  and  _309
REMARK  125  A    between atoms: _308  and  _311
REMARK  126  A    between atoms: _311  and  _312
REMARK  127  A    between atoms: _317  and  _319
REMARK  128  A    between atoms: _319  and  _320
REMARK  129  A    between atoms: _319  and  _322
REMARK  130  A    between atoms: _322  and  _323
REMARK  131  A    between atoms: _323  and  _324
REMARK  132  A    between atoms: _326  and  _328
REMARK  133  A    between atoms: _328  and  _329
REMARK  134  A    between atoms: _328  and  _331
REMARK  135  A    between atoms: _331  and  _332
REMARK  136  A    between atoms: _335  and  _337
REMARK  137  A    between atoms: _337  and  _338
REMARK  138  A    between atoms: _337  and  _340
REMARK  139  A    between atoms: _340  and  _341
REMARK  140  A    between atoms: _344  and  _346
REMARK  141  A    between atoms: _346  and  _347
REMARK  142  A    between atoms: _346  and  _349
REMARK  143  A    between atoms: _352  and  _354
REMARK  144  A    between atoms: _354  and  _355
REMARK  145  A    between atoms: _354  and  _357
REMARK  146  A    between atoms: _357  and  _358
REMARK  147  A    between atoms: _358  and  _359
REMARK  148  A    between atoms: _361  and  _363
REMARK  149  A    between atoms: _363  and  _364
REMARK  150  A    between atoms: _367  and  _369
REMARK  151  A    between atoms: _369  and  _370
REMARK  152  A    between atoms: _369  and  _372
REMARK  153  A    between atoms: _372  and  _373
REMARK  154  A    between atoms: _376  and  _378
REMARK  155  A    between atoms: _378  and  _379
REMARK  156  A    between atoms: _378  and  _381
REMARK  157  A    between atoms: _381  and  _382
REMARK  158  A    between atoms: _385  and  _387
REMARK  159  A    between atoms: _387  and  _388
REMARK  160  A    between atoms: _387  and  _390
REMARK  161  A    between atoms: _390  and  _391
REMARK  162  A    between atoms: _396  and  _397
REMARK  163  A    between atoms: _399  and  _401
REMARK  164  A    between atoms: _401  and  _402
REMARK  165  A    between atoms: _401  and  _404
REMARK  166  A    between atoms: _404  and  _405
REMARK  167  A    between atoms: _408  and  _410
REMARK  168  A    between atoms: _410  and  _411
REMARK  169  A    between atoms: _410  and  _413
REMARK  170  A    between atoms: _415  and  _417
REMARK  171  A    between atoms: _417  and  _418
REMARK  172  A    between atoms: _417  and  _420
REMARK  173  A    between atoms: _420  and  _421
REMARK  174  A    between atoms: _431  and  _433
REMARK  175  A    between atoms: _433  and  _434
REMARK  176  A    between atoms: _437  and  _439
REMARK  177  A    between atoms: _439  and  _440
REMARK  178  A    between atoms: _439  and  _442
REMARK  179  A    between atoms: _445  and  _447
REMARK  180  A    between atoms: _447  and  _448
REMARK  181  A    between atoms: _447  and  _450
REMARK  182  A    between atoms: _450  and  _451
REMARK  183  A    between atoms: _453  and  _455
REMARK  184  A    between atoms: _455  and  _456
REMARK  185  A    between atoms: _455  and  _458
REMARK  186  A    between atoms: _461  and  _463
REMARK  187  A    between atoms: _463  and  _464
REMARK  188  A    between atoms: _463  and  _466
REMARK  189  A    between atoms: _466  and  _467
REMARK  190  A    between atoms: _470  and  _472
REMARK  191  A    between atoms: _472  and  _473
REMARK  192  A    between atoms: _472  and  _475
REMARK  193  A    between atoms: _475  and  _476
REMARK  194  A    between atoms: _476  and  _477
REMARK  195  A    between atoms: _477  and  _478
REMARK  196  A    between atoms: _487  and  _489
REMARK  197  A    between atoms: _489  and  _490
REMARK  198  A    between atoms: _489  and  _492
REMARK  199  A    between atoms: _495  and  _497
REMARK  200  A    between atoms: _497  and  _498
REMARK  201  A    between atoms: _497  and  _500
REMARK  202  A    between atoms: _500  and  _501
REMARK  203  A    between atoms: _504  and  _506
REMARK  204  A    between atoms: _506  and  _507
REMARK  205  A    between atoms: _506  and  _509
REMARK  206  A    between atoms: _509  and  _510
REMARK  207  A    between atoms: _513  and  _515
REMARK  208  A    between atoms: _515  and  _516
REMARK  209  A    between atoms: _515  and  _518
REMARK  210  A    between atoms: _521  and  _523
REMARK  211  A    between atoms: _523  and  _524
REMARK  212  A    between atoms: _523  and  _526
REMARK  213  A    between atoms: _528  and  _530
REMARK  214  A    between atoms: _530  and  _531
REMARK  215  A    between atoms: _530  and  _533
REMARK  216  A    between atoms: _533  and  _534
REMARK  217  A    between atoms: _539  and  _541
REMARK  218  A    between atoms: _541  and  _542
REMARK  219  A    between atoms: _541  and  _544
REMARK  220  A    between atoms: _544  and  _545
REMARK  221  A    between atoms: _547  and  _549
REMARK  222  A    between atoms: _549  and  _550
REMARK  223  A    between atoms: _549  and  _552
REMARK  224  A    between atoms: _552  and  _553
REMARK                            x       y       z     vdW  Elec       q    Type
REMARK                         _______ _______ _______ _____ _____    ______ ____
ROOT
ATOM      1  O   HOH     1      59.383  23.019  35.967  0.00  0.00    +0.000 OA
ENDROOT
TORSDOF 0
REMARK  Name = ../refined-set-2016/1k27/1k27_pocket.pdb
REMARK  224 active torsions:
REMARK  status: ('A' for Active; 'I' for Inactive)
REMARK    1  A    between atoms: _1  and  _3
REMARK    2  A    between atoms: _3  and  _4
REMARK    3  A    between atoms: _6  and  _8
REMARK    4  A    between atoms: _8  and  _9
REMARK    5  A    between atoms: _8  and  _11
REMARK    6  A    between atoms: _11  and  _12
REMARK    7  A    between atoms: _15  and  _17
REMARK    8  A    between atoms: _17  and  _18
REMARK    9  A    between atoms: _20  and  _22
REMARK   10  A    between atoms: _22  and  _23
REMARK   11  A    between atoms: _22  and  _25
REMARK   12  A    between atoms: _25  and  _26
REMARK   13  A    between atoms: _26  and  _27
REMARK   14  A    between atoms: _27  and  _28
REMARK   15  A    between atoms: _37  and  _39
REMARK   16  A    between atoms: _39  and  _40
REMARK   17  A    between atoms: _39  and  _42
REMARK   18  A    between atoms: _42  and  _43
REMARK   19  A    between atoms: _48  and  _50
REMARK   20  A    between atoms: _50  and  _51
REMARK   21  A    between atoms: _50  and  _53
REMARK   22  A    between atoms: _53  and  _54
REMARK   23  A    between atoms: _59  and  _61
REMARK   24  A    between atoms: _61  and  _62
REMARK   25  A    between atoms: _61  and  _64
REMARK   26  A    between atoms: _64  and  _65
REMARK   27  A    between atoms: _68  and  _70
REMARK   28  A    between atoms: _70  and  _71
REMARK   29  A    between atoms: _70  and  _73
REMARK   30  A    between atoms: _73  and  _74
REMARK   31  A    between atoms: _74  and  _75
REMARK   32  A    between atoms: _78  and  _79
REMARK   33  A    between atoms: _84  and  _86
REMARK   34  A    between atoms: _86  and  _87
REMARK   35  A    between atoms: _86  and  _89
REMARK   36  A    between atoms: _89  and  _90
REMARK   37  A    between atoms: _92  and  _94
REMARK   38  A    between atoms: _94  and  _95
REMARK   39  A    between atoms: _94  and  _97
REMARK   40  A    between atoms: _100  and  _102
REMARK   41  A    between atoms: _102  and  _103
REMARK   42  A    between atoms: _102  and  _105
REMARK   43  A    between atoms: _105  and  _106
REMARK   44  A    between atoms: _111  and  _112
REMARK   45  A    between atoms: _114  and  _116
REMARK   46  A    between atoms: _116  and  _117
REMARK   47  A    between atoms: _116  and  _119
REMARK   48  A    between atoms: _119  and  _120
REMARK   49  A    between atoms: _123  and  _125
REMARK   50  A    between atoms: _125  and  _126
REMARK   51  A    between atoms: _129  and  _131
REMARK   52  A    between atoms: _131  and  _132
REMARK   53  A    between atoms: _131  and  _134
REMARK   54  A    between atoms: _136  and  _138
REMARK   55  A    between atoms: _138  and  _139
REMARK   56  A    between atoms: _141  and  _143
REMARK   57  A    between atoms: _143  and  _144
REMARK   58  A    between atoms: _143  and  _146
REMARK   59  A    between atoms: _146  and  _147
REMARK   60  A    between atoms: _149  and  _151
REMARK   61  A    between atoms: _151  and  _152
REMARK   62  A    between atoms: _151  and  _154
REMARK   63  A    between atoms: _154  and  _155
REMARK   64  A    between atoms: _158  and  _160
REMARK   65  A    between atoms: _160  and  _161
REMARK   66  A    between atoms: _160  and  _163
REMARK   67  A    between atoms: _163  and  _164
REMARK   68  A    between atoms: _164  and  _165
REMARK   69  A    between atoms: _165  and  _166
REMARK   70  A    between atoms: _175  and  _177
REMARK   71  A    between atoms: _177  and  _178
REMARK   72  A    between atoms: _177  and  _180
REMARK   73  A    between atoms: _180  and  _181
REMARK   74  A    between atoms: _181  and  _182
REMARK   75  A    between atoms: _184  and  _186
REMARK   76  A    between atoms: _186  and  _187
REMARK   77  A    between atoms: _186  and  _189
REMARK   78  A    between atoms: _192  and  _194
REMARK   79  A    between atoms: _194  and  _195
REMARK   80  A    between atoms: _194  and  _197
REMARK   81  A    between atoms: _197  and  _198
REMARK   82  A    between atoms: _201  and  _203
REMARK   83  A    between atoms: _203  and  _204
REMARK   84  A    between atoms: _203  and  _206
REMARK   85  A    between atoms: _206  and  _207
REMARK   86  A    between atoms: _210  and  _212
REMARK   87  A    between atoms: _212  and  _213
REMARK   88  A    between atoms: _212  and  _215
REMARK   89  A    between atoms: _215  and  _216
REMARK   90  A    between atoms: _216  and  _217
REMARK   91  A    between atoms: _220  and  _222
REMARK   92  A    between atoms: _222  and  _223
REMARK   93  A    between atoms: _226  and  _227
REMARK   94  A    between atoms: _232  and  _234
REMARK   95  A    between atoms: _234  and  _235
REMARK   96  A    between atoms: _234  and  _237
REMARK   97  A    between atoms: _237  and  _238
REMARK   98  A    between atoms: _238  and  _239
REMARK   99  A    between atoms: _239  and  _240
REMARK  100  A    between atoms: _249  and  _251
REMARK  101  A    between atoms: _251  and  _252
REMARK  102  A    between atoms: _251  and  _254
REMARK  103  A    between atoms: _254  and  _255
REMARK  104  A    between atoms: _261  and  _263
REMARK  105  A    between atoms: _263  and  _264
REMARK  106  A    between atoms: _263  and  _266
REMARK  107  A    between atoms: _266  and  _267
REMARK  108  A    between atoms: _269  and  _271
REMARK  109  A    between atoms: _271  and  _272
REMARK  110  A    between atoms: _271  and  _274
REMARK  111  A    between atoms: _274  and  _275
REMARK  112  A    between atoms: _277  and  _279
REMARK  113  A    between atoms: _279  and  _280
REMARK  114  A    between atoms: _279  and  _282
REMARK  115  A    between atoms: _282  and  _283
REMARK  116  A    between atoms: _289  and  _291
REMARK  117  A    between atoms: _291  and  _292
REMARK  118  A    between atoms: _291  and  _294
REMARK  119  A    between atoms: _297  and  _299
REMARK  120  A    between atoms: _299  and  _300
REMARK  121  A    between atoms: _299  and  _302
REMARK  122  A    between atoms: _302  and  _303
REMARK  123  A    between atoms: _306  and  _308
REMARK  124  A    between atoms: _308  and  _309
REMARK  125  A    between atoms: _308  and  _311
REMARK  126  A    between atoms: _311  and  _312
REMARK  127  A    between atoms: _317  and  _319
REMARK  128  A    between atoms: _319  and  _320
REMARK  129  A    between atoms: _319  and  _322
REMARK  130  A    between atoms: _322  and  _323
REMARK  131  A    between atoms: _323  and  _324
REMARK  132  A    between atoms: _326  and  _328
REMARK  133  A    between atoms: _328  and  _329
REMARK  134  A    between atoms: _328  and  _331
REMARK  135  A    between atoms: _331  and  _332
REMARK  136  A    between atoms: _335  and  _337
REMARK  137  A    between atoms: _337  and  _338
REMARK  138  A    between atoms: _337  and  _340
REMARK  139  A    between atoms: _340  and  _341
REMARK  140  A    between atoms: _344  and  _346
REMARK  141  A    between atoms: _346  and  _347
REMARK  142  A    between atoms: _346  and  _349
REMARK  143  A    between atoms: _352  and  _354
REMARK  144  A    between atoms: _354  and  _355
REMARK  145  A    between atoms: _354  and  _357
REMARK  146  A    between atoms: _357  and  _358
REMARK  147  A    between atoms: _358  and  _359
REMARK  148  A    between atoms: _361  and  _363
REMARK  149  A    between atoms: _363  and  _364
REMARK  150  A    between atoms: _367  and  _369
REMARK  151  A    between atoms: _369  and  _370
REMARK  152  A    between atoms: _369  and  _372
REMARK  153  A    between atoms: _372  and  _373
REMARK  154  A    between atoms: _376  and  _378
REMARK  155  A    between atoms: _378  and  _379
REMARK  156  A    between atoms: _378  and  _381
REMARK  157  A    between atoms: _381  and  _382
REMARK  158  A    between atoms: _385  and  _387
REMARK  159  A    between atoms: _387  and  _388
REMARK  160  A    between atoms: _387  and  _390
REMARK  161  A    between atoms: _390  and  _391
REMARK  162  A    between atoms: _396  and  _397
REMARK  163  A    between atoms: _399  and  _401
REMARK  164  A    between atoms: _401  and  _402
REMARK  165  A    between atoms: _401  and  _404
REMARK  166  A    between atoms: _404  and  _405
REMARK  167  A    between atoms: _408  and  _410
REMARK  168  A    between atoms: _410  and  _411
REMARK  169  A    between atoms: _410  and  _413
REMARK  170  A    between atoms: _415  and  _417
REMARK  171  A    between atoms: _417  and  _418
REMARK  172  A    between atoms: _417  and  _420
REMARK  173  A    between atoms: _420  and  _421
REMARK  174  A    between atoms: _431  and  _433
REMARK  175  A    between atoms: _433  and  _434
REMARK  176  A    between atoms: _437  and  _439
REMARK  177  A    between atoms: _439  and  _440
REMARK  178  A    between atoms: _439  and  _442
REMARK  179  A    between atoms: _445  and  _447
REMARK  180  A    between atoms: _447  and  _448
REMARK  181  A    between atoms: _447  and  _450
REMARK  182  A    between atoms: _450  and  _451
REMARK  183  A    between atoms: _453  and  _455
REMARK  184  A    between atoms: _455  and  _456
REMARK  185  A    between atoms: _455  and  _458
REMARK  186  A    between atoms: _461  and  _463
REMARK  187  A    between atoms: _463  and  _464
REMARK  188  A    between atoms: _463  and  _466
REMARK  189  A    between atoms: _466  and  _467
REMARK  190  A    between atoms: _470  and  _472
REMARK  191  A    between atoms: _472  and  _473
REMARK  192  A    between atoms: _472  and  _475
REMARK  193  A    between atoms: _475  and  _476
REMARK  194  A    between atoms: _476  and  _477
REMARK  195  A    between atoms: _477  and  _478
REMARK  196  A    between atoms: _487  and  _489
REMARK  197  A    between atoms: _489  and  _490
REMARK  198  A    between atoms: _489  and  _492
REMARK  199  A    between atoms: _495  and  _497
REMARK  200  A    between atoms: _497  and  _498
REMARK  201  A    between atoms: _497  and  _500
REMARK  202  A    between atoms: _500  and  _501
REMARK  203  A    between atoms: _504  and  _506
REMARK  204  A    between atoms: _506  and  _507
REMARK  205  A    between atoms: _506  and  _509
REMARK  206  A    between atoms: _509  and  _510
REMARK  207  A    between atoms: _513  and  _515
REMARK  208  A    between atoms: _515  and  _516
REMARK  209  A    between atoms: _515  and  _518
REMARK  210  A    between atoms: _521  and  _523
REMARK  211  A    between atoms: _523  and  _524
REMARK  212  A    between atoms: _523  and  _526
REMARK  213  A    between atoms: _528  and  _530
REMARK  214  A    between atoms: _530  and  _531
REMARK  215  A    between atoms: _530  and  _533
REMARK  216  A    between atoms: _533  and  _534
REMARK  217  A    between atoms: _539  and  _541
REMARK  218  A    between atoms: _541  and  _542
REMARK  219  A    between atoms: _541  and  _544
REMARK  220  A    between atoms: _544  and  _545
REMARK  221  A    between atoms: _547  and  _549
REMARK  222  A    between atoms: _549  and  _550
REMARK  223  A    between atoms: _549  and  _552
REMARK  224  A    between atoms: _552  and  _553
REMARK                            x       y       z     vdW  Elec       q    Type
REMARK                         _______ _______ _______ _____ _____    ______ ____
ROOT
ATOM      1  O   HOH     1      54.945  14.282  20.187  0.00  0.00    +0.000 OA
ENDROOT
TORSDOF 0
REMARK  Name = ../refined-set-2016/1k27/1k27_pocket.pdb
REMARK  224 active torsions:
REMARK  status: ('A' for Active; 'I' for Inactive)
REMARK    1  A    between atoms: _1  and  _3
REMARK    2  A    between atoms: _3  and  _4
REMARK    3  A    between atoms: _6  and  _8
REMARK    4  A    between atoms: _8  and  _9
REMARK    5  A    between atoms: _8  and  _11
REMARK    6  A    between atoms: _11  and  _12
REMARK    7  A    between atoms: _15  and  _17
REMARK    8  A    between atoms: _17  and  _18
REMARK    9  A    between atoms: _20  and  _22
REMARK   10  A    between atoms: _22  and  _23
REMARK   11  A    between atoms: _22  and  _25
REMARK   12  A    between atoms: _25  and  _26
REMARK   13  A    between atoms: _26  and  _27
REMARK   14  A    between atoms: _27  and  _28
REMARK   15  A    between atoms: _37  and  _39
REMARK   16  A    between atoms: _39  and  _40
REMARK   17  A    between atoms: _39  and  _42
REMARK   18  A    between atoms: _42  and  _43
REMARK   19  A    between atoms: _48  and  _50
REMARK   20  A    between atoms: _50  and  _51
REMARK   21  A    between atoms: _50  and  _53
REMARK   22  A    between atoms: _53  and  _54
REMARK   23  A    between atoms: _59  and  _61
REMARK   24  A    between atoms: _61  and  _62
REMARK   25  A    between atoms: _61  and  _64
REMARK   26  A    between atoms: _64  and  _65
REMARK   27  A    between atoms: _68  and  _70
REMARK   28  A    between atoms: _70  and  _71
REMARK   29  A    between atoms: _70  and  _73
REMARK   30  A    between atoms: _73  and  _74
REMARK   31  A    between atoms: _74  and  _75
REMARK   32  A    between atoms: _78  and  _79
REMARK   33  A    between atoms: _84  and  _86
REMARK   34  A    between atoms: _86  and  _87
REMARK   35  A    between atoms: _86  and  _89
REMARK   36  A    between atoms: _89  and  _90
REMARK   37  A    between atoms: _92  and  _94
REMARK   38  A    between atoms: _94  and  _95
REMARK   39  A    between atoms: _94  and  _97
REMARK   40  A    between atoms: _100  and  _102
REMARK   41  A    between atoms: _102  and  _103
REMARK   42  A    between atoms: _102  and  _105
REMARK   43  A    between atoms: _105  and  _106
REMARK   44  A    between atoms: _111  and  _112
REMARK   45  A    between atoms: _114  and  _116
REMARK   46  A    between atoms: _116  and  _117
REMARK   47  A    between atoms: _116  and  _119
REMARK   48  A    between atoms: _119  and  _120
REMARK   49  A    between atoms: _123  and  _125
REMARK   50  A    between atoms: _125  and  _126
REMARK   51  A    between atoms: _129  and  _131
REMARK   52  A    between atoms: _131  and  _132
REMARK   53  A    between atoms: _131  and  _134
REMARK   54  A    between atoms: _136  and  _138
REMARK   55  A    between atoms: _138  and  _139
REMARK   56  A    between atoms: _141  and  _143
REMARK   57  A    between atoms: _143  and  _144
REMARK   58  A    between atoms: _143  and  _146
REMARK   59  A    between atoms: _146  and  _147
REMARK   60  A    between atoms: _149  and  _151
REMARK   61  A    between atoms: _151  and  _152
REMARK   62  A    between atoms: _151  and  _154
REMARK   63  A    between atoms: _154  and  _155
REMARK   64  A    between atoms: _158  and  _160
REMARK   65  A    between atoms: _160  and  _161
REMARK   66  A    between atoms: _160  and  _163
REMARK   67  A    between atoms: _163  and  _164
REMARK   68  A    between atoms: _164  and  _165
REMARK   69  A    between atoms: _165  and  _166
REMARK   70  A    between atoms: _175  and  _177
REMARK   71  A    between atoms: _177  and  _178
REMARK   72  A    between atoms: _177  and  _180
REMARK   73  A    between atoms: _180  and  _181
REMARK   74  A    between atoms: _181  and  _182
REMARK   75  A    between atoms: _184  and  _186
REMARK   76  A    between atoms: _186  and  _187
REMARK   77  A    between atoms: _186  and  _189
REMARK   78  A    between atoms: _192  and  _194
REMARK   79  A    between atoms: _194  and  _195
REMARK   80  A    between atoms: _194  and  _197
REMARK   81  A    between atoms: _197  and  _198
REMARK   82  A    between atoms: _201  and  _203
REMARK   83  A    between atoms: _203  and  _204
REMARK   84  A    between atoms: _203  and  _206
REMARK   85  A    between atoms: _206  and  _207
REMARK   86  A    between atoms: _210  and  _212
REMARK   87  A    between atoms: _212  and  _213
REMARK   88  A    between atoms: _212  and  _215
REMARK   89  A    between atoms: _215  and  _216
REMARK   90  A    between atoms: _216  and  _217
REMARK   91  A    between atoms: _220  and  _222
REMARK   92  A    between atoms: _222  and  _223
REMARK   93  A    between atoms: _226  and  _227
REMARK   94  A    between atoms: _232  and  _234
REMARK   95  A    between atoms: _234  and  _235
REMARK   96  A    between atoms: _234  and  _237
REMARK   97  A    between atoms: _237  and  _238
REMARK   98  A    between atoms: _238  and  _239
REMARK   99  A    between atoms: _239  and  _240
REMARK  100  A    between atoms: _249  and  _251
REMARK  101  A    between atoms: _251  and  _252
REMARK  102  A    between atoms: _251  and  _254
REMARK  103  A    between atoms: _254  and  _255
REMARK  104  A    between atoms: _261  and  _263
REMARK  105  A    between atoms: _263  and  _264
REMARK  106  A    between atoms: _263  and  _266
REMARK  107  A    between atoms: _266  and  _267
REMARK  108  A    between atoms: _269  and  _271
REMARK  109  A    between atoms: _271  and  _272
REMARK  110  A    between atoms: _271  and  _274
REMARK  111  A    between atoms: _274  and  _275
REMARK  112  A    between atoms: _277  and  _279
REMARK  113  A    between atoms: _279  and  _280
REMARK  114  A    between atoms: _279  and  _282
REMARK  115  A    between atoms: _282  and  _283
REMARK  116  A    between atoms: _289  and  _291
REMARK  117  A    between atoms: _291  and  _292
REMARK  118  A    between atoms: _291  and  _294
REMARK  119  A    between atoms: _297  and  _299
REMARK  120  A    between atoms: _299  and  _300
REMARK  121  A    between atoms: _299  and  _302
REMARK  122  A    between atoms: _302  and  _303
REMARK  123  A    between atoms: _306  and  _308
REMARK  124  A    between atoms: _308  and  _309
REMARK  125  A    between atoms: _308  and  _311
REMARK  126  A    between atoms: _311  and  _312
REMARK  127  A    between atoms: _317  and  _319
REMARK  128  A    between atoms: _319  and  _320
REMARK  129  A    between atoms: _319  and  _322
REMARK  130  A    between atoms: _322  and  _323
REMARK  131  A    between atoms: _323  and  _324
REMARK  132  A    between atoms: _326  and  _328
REMARK  133  A    between atoms: _328  and  _329
REMARK  134  A    between atoms: _328  and  _331
REMARK  135  A    between atoms: _331  and  _332
REMARK  136  A    between atoms: _335  and  _337
REMARK  137  A    between atoms: _337  and  _338
REMARK  138  A    between atoms: _337  and  _340
REMARK  139  A    between atoms: _340  and  _341
REMARK  140  A    between atoms: _344  and  _346
REMARK  141  A    between atoms: _346  and  _347
REMARK  142  A    between atoms: _346  and  _349
REMARK  143  A    between atoms: _352  and  _354
REMARK  144  A    between atoms: _354  and  _355
REMARK  145  A    between atoms: _354  and  _357
REMARK  146  A    between atoms: _357  and  _358
REMARK  147  A    between atoms: _358  and  _359
REMARK  148  A    between atoms: _361  and  _363
REMARK  149  A    between atoms: _363  and  _364
REMARK  150  A    between atoms: _367  and  _369
REMARK  151  A    between atoms: _369  and  _370
REMARK  152  A    between atoms: _369  and  _372
REMARK  153  A    between atoms: _372  and  _373
REMARK  154  A    between atoms: _376  and  _378
REMARK  155  A    between atoms: _378  and  _379
REMARK  156  A    between atoms: _378  and  _381
REMARK  157  A    between atoms: _381  and  _382
REMARK  158  A    between atoms: _385  and  _387
REMARK  159  A    between atoms: _387  and  _388
REMARK  160  A    between atoms: _387  and  _390
REMARK  161  A    between atoms: _390  and  _391
REMARK  162  A    between atoms: _396  and  _397
REMARK  163  A    between atoms: _399  and  _401
REMARK  164  A    between atoms: _401  and  _402
REMARK  165  A    between atoms: _401  and  _404
REMARK  166  A    between atoms: _404  and  _405
REMARK  167  A    between atoms: _408  and  _410
REMARK  168  A    between atoms: _410  and  _411
REMARK  169  A    between atoms: _410  and  _413
REMARK  170  A    between atoms: _415  and  _417
REMARK  171  A    between atoms: _417  and  _418
REMARK  172  A    between atoms: _417  and  _420
REMARK  173  A    between atoms: _420  and  _421
REMARK  174  A    between atoms: _431  and  _433
REMARK  175  A    between atoms: _433  and  _434
REMARK  176  A    between atoms: _437  and  _439
REMARK  177  A    between atoms: _439  and  _440
REMARK  178  A    between atoms: _439  and  _442
REMARK  179  A    between atoms: _445  and  _447
REMARK  180  A    between atoms: _447  and  _448
REMARK  181  A    between atoms: _447  and  _450
REMARK  182  A    between atoms: _450  and  _451
REMARK  183  A    between atoms: _453  and  _455
REMARK  184  A    between atoms: _455  and  _456
REMARK  185  A    between atoms: _455  and  _458
REMARK  186  A    between atoms: _461  and  _463
REMARK  187  A    between atoms: _463  and  _464
REMARK  188  A    between atoms: _463  and  _466
REMARK  189  A    between atoms: _466  and  _467
REMARK  190  A    between atoms: _470  and  _472
REMARK  191  A    between atoms: _472  and  _473
REMARK  192  A    between atoms: _472  and  _475
REMARK  193  A    between atoms: _475  and  _476
REMARK  194  A    between atoms: _476  and  _477
REMARK  195  A    between atoms: _477  and  _478
REMARK  196  A    between atoms: _487  and  _489
REMARK  197  A    between atoms: _489  and  _490
REMARK  198  A    between atoms: _489  and  _492
REMARK  199  A    between atoms: _495  and  _497
REMARK  200  A    between atoms: _497  and  _498
REMARK  201  A    between atoms: _497  and  _500
REMARK  202  A    between atoms: _500  and  _501
REMARK  203  A    between atoms: _504  and  _506
REMARK  204  A    between atoms: _506  and  _507
REMARK  205  A    between atoms: _506  and  _509
REMARK  206  A    between atoms: _509  and  _510
REMARK  207  A    between atoms: _513  and  _515
REMARK  208  A    between atoms: _515  and  _516
REMARK  209  A    between atoms: _515  and  _518
REMARK  210  A    between atoms: _521  and  _523
REMARK  211  A    between atoms: _523  and  _524
REMARK  212  A    between atoms: _523  and  _526
REMARK  213  A    between atoms: _528  and  _530
REMARK  214  A    between atoms: _530  and  _531
REMARK  215  A    between atoms: _530  and  _533
REMARK  216  A    between atoms: _533  and  _534
REMARK  217  A    between atoms: _539  and  _541
REMARK  218  A    between atoms: _541  and  _542
REMARK  219  A    between atoms: _541  and  _544
REMARK  220  A    between atoms: _544  and  _545
REMARK  221  A    between atoms: _547  and  _549
REMARK  222  A    between atoms: _549  and  _550
REMARK  223  A    between atoms: _549  and  _552
REMARK  224  A    between atoms: _552  and  _553
REMARK                            x       y       z     vdW  Elec       q    Type
REMARK                         _______ _______ _______ _____ _____    ______ ____
ROOT
ATOM      1  O   HOH     1      53.920  20.492  23.869  0.00  0.00    +0.000 OA
ENDROOT
TORSDOF 0
REMARK  Name = ../refined-set-2016/1k27/1k27_pocket.pdb
REMARK  224 active torsions:
REMARK  status: ('A' for Active; 'I' for Inactive)
REMARK    1  A    between atoms: _1  and  _3
REMARK    2  A    between atoms: _3  and  _4
REMARK    3  A    between atoms: _6  and  _8
REMARK    4  A    between atoms: _8  and  _9
REMARK    5  A    between atoms: _8  and  _11
REMARK    6  A    between atoms: _11  and  _12
REMARK    7  A    between atoms: _15  and  _17
REMARK    8  A    between atoms: _17  and  _18
REMARK    9  A    between atoms: _20  and  _22
REMARK   10  A    between atoms: _22  and  _23
REMARK   11  A    between atoms: _22  and  _25
REMARK   12  A    between atoms: _25  and  _26
REMARK   13  A    between atoms: _26  and  _27
REMARK   14  A    between atoms: _27  and  _28
REMARK   15  A    between atoms: _37  and  _39
REMARK   16  A    between atoms: _39  and  _40
REMARK   17  A    between atoms: _39  and  _42
REMARK   18  A    between atoms: _42  and  _43
REMARK   19  A    between atoms: _48  and  _50
REMARK   20  A    between atoms: _50  and  _51
REMARK   21  A    between atoms: _50  and  _53
REMARK   22  A    between atoms: _53  and  _54
REMARK   23  A    between atoms: _59  and  _61
REMARK   24  A    between atoms: _61  and  _62
REMARK   25  A    between atoms: _61  and  _64
REMARK   26  A    between atoms: _64  and  _65
REMARK   27  A    between atoms: _68  and  _70
REMARK   28  A    between atoms: _70  and  _71
REMARK   29  A    between atoms: _70  and  _73
REMARK   30  A    between atoms: _73  and  _74
REMARK   31  A    between atoms: _74  and  _75
REMARK   32  A    between atoms: _78  and  _79
REMARK   33  A    between atoms: _84  and  _86
REMARK   34  A    between atoms: _86  and  _87
REMARK   35  A    between atoms: _86  and  _89
REMARK   36  A    between atoms: _89  and  _90
REMARK   37  A    between atoms: _92  and  _94
REMARK   38  A    between atoms: _94  and  _95
REMARK   39  A    between atoms: _94  and  _97
REMARK   40  A    between atoms: _100  and  _102
REMARK   41  A    between atoms: _102  and  _103
REMARK   42  A    between atoms: _102  and  _105
REMARK   43  A    between atoms: _105  and  _106
REMARK   44  A    between atoms: _111  and  _112
REMARK   45  A    between atoms: _114  and  _116
REMARK   46  A    between atoms: _116  and  _117
REMARK   47  A    between atoms: _116  and  _119
REMARK   48  A    between atoms: _119  and  _120
REMARK   49  A    between atoms: _123  and  _125
REMARK   50  A    between atoms: _125  and  _126
REMARK   51  A    between atoms: _129  and  _131
REMARK   52  A    between atoms: _131  and  _132
REMARK   53  A    between atoms: _131  and  _134
REMARK   54  A    between atoms: _136  and  _138
REMARK   55  A    between atoms: _138  and  _139
REMARK   56  A    between atoms: _141  and  _143
REMARK   57  A    between atoms: _143  and  _144
REMARK   58  A    between atoms: _143  and  _146
REMARK   59  A    between atoms: _146  and  _147
REMARK   60  A    between atoms: _149  and  _151
REMARK   61  A    between atoms: _151  and  _152
REMARK   62  A    between atoms: _151  and  _154
REMARK   63  A    between atoms: _154  and  _155
REMARK   64  A    between atoms: _158  and  _160
REMARK   65  A    between atoms: _160  and  _161
REMARK   66  A    between atoms: _160  and  _163
REMARK   67  A    between atoms: _163  and  _164
REMARK   68  A    between atoms: _164  and  _165
REMARK   69  A    between atoms: _165  and  _166
REMARK   70  A    between atoms: _175  and  _177
REMARK   71  A    between atoms: _177  and  _178
REMARK   72  A    between atoms: _177  and  _180
REMARK   73  A    between atoms: _180  and  _181
REMARK   74  A    between atoms: _181  and  _182
REMARK   75  A    between atoms: _184  and  _186
REMARK   76  A    between atoms: _186  and  _187
REMARK   77  A    between atoms: _186  and  _189
REMARK   78  A    between atoms: _192  and  _194
REMARK   79  A    between atoms: _194  and  _195
REMARK   80  A    between atoms: _194  and  _197
REMARK   81  A    between atoms: _197  and  _198
REMARK   82  A    between atoms: _201  and  _203
REMARK   83  A    between atoms: _203  and  _204
REMARK   84  A    between atoms: _203  and  _206
REMARK   85  A    between atoms: _206  and  _207
REMARK   86  A    between atoms: _210  and  _212
REMARK   87  A    between atoms: _212  and  _213
REMARK   88  A    between atoms: _212  and  _215
REMARK   89  A    between atoms: _215  and  _216
REMARK   90  A    between atoms: _216  and  _217
REMARK   91  A    between atoms: _220  and  _222
REMARK   92  A    between atoms: _222  and  _223
REMARK   93  A    between atoms: _226  and  _227
REMARK   94  A    between atoms: _232  and  _234
REMARK   95  A    between atoms: _234  and  _235
REMARK   96  A    between atoms: _234  and  _237
REMARK   97  A    between atoms: _237  and  _238
REMARK   98  A    between atoms: _238  and  _239
REMARK   99  A    between atoms: _239  and  _240
REMARK  100  A    between atoms: _249  and  _251
REMARK  101  A    between atoms: _251  and  _252
REMARK  102  A    between atoms: _251  and  _254
REMARK  103  A    between atoms: _254  and  _255
REMARK  104  A    between atoms: _261  and  _263
REMARK  105  A    between atoms: _263  and  _264
REMARK  106  A    between atoms: _263  and  _266
REMARK  107  A    between atoms: _266  and  _267
REMARK  108  A    between atoms: _269  and  _271
REMARK  109  A    between atoms: _271  and  _272
REMARK  110  A    between atoms: _271  and  _274
REMARK  111  A    between atoms: _274  and  _275
REMARK  112  A    between atoms: _277  and  _279
REMARK  113  A    between atoms: _279  and  _280
REMARK  114  A    between atoms: _279  and  _282
REMARK  115  A    between atoms: _282  and  _283
REMARK  116  A    between atoms: _289  and  _291
REMARK  117  A    between atoms: _291  and  _292
REMARK  118  A    between atoms: _291  and  _294
REMARK  119  A    between atoms: _297  and  _299
REMARK  120  A    between atoms: _299  and  _300
REMARK  121  A    between atoms: _299  and  _302
REMARK  122  A    between atoms: _302  and  _303
REMARK  123  A    between atoms: _306  and  _308
REMARK  124  A    between atoms: _308  and  _309
REMARK  125  A    between atoms: _308  and  _311
REMARK  126  A    between atoms: _311  and  _312
REMARK  127  A    between atoms: _317  and  _319
REMARK  128  A    between atoms: _319  and  _320
REMARK  129  A    between atoms: _319  and  _322
REMARK  130  A    between atoms: _322  and  _323
REMARK  131  A    between atoms: _323  and  _324
REMARK  132  A    between atoms: _326  and  _328
REMARK  133  A    between atoms: _328  and  _329
REMARK  134  A    between atoms: _328  and  _331
REMARK  135  A    between atoms: _331  and  _332
REMARK  136  A    between atoms: _335  and  _337
REMARK  137  A    between atoms: _337  and  _338
REMARK  138  A    between atoms: _337  and  _340
REMARK  139  A    between atoms: _340  and  _341
REMARK  140  A    between atoms: _344  and  _346
REMARK  141  A    between atoms: _346  and  _347
REMARK  142  A    between atoms: _346  and  _349
REMARK  143  A    between atoms: _352  and  _354
REMARK  144  A    between atoms: _354  and  _355
REMARK  145  A    between atoms: _354  and  _357
REMARK  146  A    between atoms: _357  and  _358
REMARK  147  A    between atoms: _358  and  _359
REMARK  148  A    between atoms: _361  and  _363
REMARK  149  A    between atoms: _363  and  _364
REMARK  150  A    between atoms: _367  and  _369
REMARK  151  A    between atoms: _369  and  _370
REMARK  152  A    between atoms: _369  and  _372
REMARK  153  A    between atoms: _372  and  _373
REMARK  154  A    between atoms: _376  and  _378
REMARK  155  A    between atoms: _378  and  _379
REMARK  156  A    between atoms: _378  and  _381
REMARK  157  A    between atoms: _381  and  _382
REMARK  158  A    between atoms: _385  and  _387
REMARK  159  A    between atoms: _387  and  _388
REMARK  160  A    between atoms: _387  and  _390
REMARK  161  A    between atoms: _390  and  _391
REMARK  162  A    between atoms: _396  and  _397
REMARK  163  A    between atoms: _399  and  _401
REMARK  164  A    between atoms: _401  and  _402
REMARK  165  A    between atoms: _401  and  _404
REMARK  166  A    between atoms: _404  and  _405
REMARK  167  A    between atoms: _408  and  _410
REMARK  168  A    between atoms: _410  and  _411
REMARK  169  A    between atoms: _410  and  _413
REMARK  170  A    between atoms: _415  and  _417
REMARK  171  A    between atoms: _417  and  _418
REMARK  172  A    between atoms: _417  and  _420
REMARK  173  A    between atoms: _420  and  _421
REMARK  174  A    between atoms: _431  and  _433
REMARK  175  A    between atoms: _433  and  _434
REMARK  176  A    between atoms: _437  and  _439
REMARK  177  A    between atoms: _439  and  _440
REMARK  178  A    between atoms: _439  and  _442
REMARK  179  A    between atoms: _445  and  _447
REMARK  180  A    between atoms: _447  and  _448
REMARK  181  A    between atoms: _447  and  _450
REMARK  182  A    between atoms: _450  and  _451
REMARK  183  A    between atoms: _453  and  _455
REMARK  184  A    between atoms: _455  and  _456
REMARK  185  A    between atoms: _455  and  _458
REMARK  186  A    between atoms: _461  and  _463
REMARK  187  A    between atoms: _463  and  _464
REMARK  188  A    between atoms: _463  and  _466
REMARK  189  A    between atoms: _466  and  _467
REMARK  190  A    between atoms: _470  and  _472
REMARK  191  A    between atoms: _472  and  _473
REMARK  192  A    between atoms: _472  and  _475
REMARK  193  A    between atoms: _475  and  _476
REMARK  194  A    between atoms: _476  and  _477
REMARK  195  A    between atoms: _477  and  _478
REMARK  196  A    between atoms: _487  and  _489
REMARK  197  A    between atoms: _489  and  _490
REMARK  198  A    between atoms: _489  and  _492
REMARK  199  A    between atoms: _495  and  _497
REMARK  200  A    between atoms: _497  and  _498
REMARK  201  A    between atoms: _497  and  _500
REMARK  202  A    between atoms: _500  and  _501
REMARK  203  A    between atoms: _504  and  _506
REMARK  204  A    between atoms: _506  and  _507
REMARK  205  A    between atoms: _506  and  _509
REMARK  206  A    between atoms: _509  and  _510
REMARK  207  A    between atoms: _513  and  _515
REMARK  208  A    between atoms: _515  and  _516
REMARK  209  A    between atoms: _515  and  _518
REMARK  210  A    between atoms: _521  and  _523
REMARK  211  A    between atoms: _523  and  _524
REMARK  212  A    between atoms: _523  and  _526
REMARK  213  A    between atoms: _528  and  _530
REMARK  214  A    between atoms: _530  and  _531
REMARK  215  A    between atoms: _530  and  _533
REMARK  216  A    between atoms: _533  and  _534
REMARK  217  A    between atoms: _539  and  _541
REMARK  218  A    between atoms: _541  and  _542
REMARK  219  A    between atoms: _541  and  _544
REMARK  220  A    between atoms: _544  and  _545
REMARK  221  A    between atoms: _547  and  _549
REMARK  222  A    between atoms: _549  and  _550
REMARK  223  A    between atoms: _549  and  _552
REMARK  224  A    between atoms: _552  and  _553
REMARK                            x       y       z     vdW  Elec       q    Type
REMARK                         _______ _______ _______ _____ _____    ______ ____
ROOT
ATOM      1  O   HOH     1      56.483  25.509  29.435  0.00  0.00    +0.000 OA
ENDROOT
TORSDOF 0
REMARK  Name = ../refined-set-2016/1k27/1k27_pocket.pdb
REMARK  224 active torsions:
REMARK  status: ('A' for Active; 'I' for Inactive)
REMARK    1  A    between atoms: _1  and  _3
REMARK    2  A    between atoms: _3  and  _4
REMARK    3  A    between atoms: _6  and  _8
REMARK    4  A    between atoms: _8  and  _9
REMARK    5  A    between atoms: _8  and  _11
REMARK    6  A    between atoms: _11  and  _12
REMARK    7  A    between atoms: _15  and  _17
REMARK    8  A    between atoms: _17  and  _18
REMARK    9  A    between atoms: _20  and  _22
REMARK   10  A    between atoms: _22  and  _23
REMARK   11  A    between atoms: _22  and  _25
REMARK   12  A    between atoms: _25  and  _26
REMARK   13  A    between atoms: _26  and  _27
REMARK   14  A    between atoms: _27  and  _28
REMARK   15  A    between atoms: _37  and  _39
REMARK   16  A    between atoms: _39  and  _40
REMARK   17  A    between atoms: _39  and  _42
REMARK   18  A    between atoms: _42  and  _43
REMARK   19  A    between atoms: _48  and  _50
REMARK   20  A    between atoms: _50  and  _51
REMARK   21  A    between atoms: _50  and  _53
REMARK   22  A    between atoms: _53  and  _54
REMARK   23  A    between atoms: _59  and  _61
REMARK   24  A    between atoms: _61  and  _62
REMARK   25  A    between atoms: _61  and  _64
REMARK   26  A    between atoms: _64  and  _65
REMARK   27  A    between atoms: _68  and  _70
REMARK   28  A    between atoms: _70  and  _71
REMARK   29  A    between atoms: _70  and  _73
REMARK   30  A    between atoms: _73  and  _74
REMARK   31  A    between atoms: _74  and  _75
REMARK   32  A    between atoms: _78  and  _79
REMARK   33  A    between atoms: _84  and  _86
REMARK   34  A    between atoms: _86  and  _87
REMARK   35  A    between atoms: _86  and  _89
REMARK   36  A    between atoms: _89  and  _90
REMARK   37  A    between atoms: _92  and  _94
REMARK   38  A    between atoms: _94  and  _95
REMARK   39  A    between atoms: _94  and  _97
REMARK   40  A    between atoms: _100  and  _102
REMARK   41  A    between atoms: _102  and  _103
REMARK   42  A    between atoms: _102  and  _105
REMARK   43  A    between atoms: _105  and  _106
REMARK   44  A    between atoms: _111  and  _112
REMARK   45  A    between atoms: _114  and  _116
REMARK   46  A    between atoms: _116  and  _117
REMARK   47  A    between atoms: _116  and  _119
REMARK   48  A    between atoms: _119  and  _120
REMARK   49  A    between atoms: _123  and  _125
REMARK   50  A    between atoms: _125  and  _126
REMARK   51  A    between atoms: _129  and  _131
REMARK   52  A    between atoms: _131  and  _132
REMARK   53  A    between atoms: _131  and  _134
REMARK   54  A    between atoms: _136  and  _138
REMARK   55  A    between atoms: _138  and  _139
REMARK   56  A    between atoms: _141  and  _143
REMARK   57  A    between atoms: _143  and  _144
REMARK   58  A    between atoms: _143  and  _146
REMARK   59  A    between atoms: _146  and  _147
REMARK   60  A    between atoms: _149  and  _151
REMARK   61  A    between atoms: _151  and  _152
REMARK   62  A    between atoms: _151  and  _154
REMARK   63  A    between atoms: _154  and  _155
REMARK   64  A    between atoms: _158  and  _160
REMARK   65  A    between atoms: _160  and  _161
REMARK   66  A    between atoms: _160  and  _163
REMARK   67  A    between atoms: _163  and  _164
REMARK   68  A    between atoms: _164  and  _165
REMARK   69  A    between atoms: _165  and  _166
REMARK   70  A    between atoms: _175  and  _177
REMARK   71  A    between atoms: _177  and  _178
REMARK   72  A    between atoms: _177  and  _180
REMARK   73  A    between atoms: _180  and  _181
REMARK   74  A    between atoms: _181  and  _182
REMARK   75  A    between atoms: _184  and  _186
REMARK   76  A    between atoms: _186  and  _187
REMARK   77  A    between atoms: _186  and  _189
REMARK   78  A    between atoms: _192  and  _194
REMARK   79  A    between atoms: _194  and  _195
REMARK   80  A    between atoms: _194  and  _197
REMARK   81  A    between atoms: _197  and  _198
REMARK   82  A    between atoms: _201  and  _203
REMARK   83  A    between atoms: _203  and  _204
REMARK   84  A    between atoms: _203  and  _206
REMARK   85  A    between atoms: _206  and  _207
REMARK   86  A    between atoms: _210  and  _212
REMARK   87  A    between atoms: _212  and  _213
REMARK   88  A    between atoms: _212  and  _215
REMARK   89  A    between atoms: _215  and  _216
REMARK   90  A    between atoms: _216  and  _217
REMARK   91  A    between atoms: _220  and  _222
REMARK   92  A    between atoms: _222  and  _223
REMARK   93  A    between atoms: _226  and  _227
REMARK   94  A    between atoms: _232  and  _234
REMARK   95  A    between atoms: _234  and  _235
REMARK   96  A    between atoms: _234  and  _237
REMARK   97  A    between atoms: _237  and  _238
REMARK   98  A    between atoms: _238  and  _239
REMARK   99  A    between atoms: _239  and  _240
REMARK  100  A    between atoms: _249  and  _251
REMARK  101  A    between atoms: _251  and  _252
REMARK  102  A    between atoms: _251  and  _254
REMARK  103  A    between atoms: _254  and  _255
REMARK  104  A    between atoms: _261  and  _263
REMARK  105  A    between atoms: _263  and  _264
REMARK  106  A    between atoms: _263  and  _266
REMARK  107  A    between atoms: _266  and  _267
REMARK  108  A    between atoms: _269  and  _271
REMARK  109  A    between atoms: _271  and  _272
REMARK  110  A    between atoms: _271  and  _274
REMARK  111  A    between atoms: _274  and  _275
REMARK  112  A    between atoms: _277  and  _279
REMARK  113  A    between atoms: _279  and  _280
REMARK  114  A    between atoms: _279  and  _282
REMARK  115  A    between atoms: _282  and  _283
REMARK  116  A    between atoms: _289  and  _291
REMARK  117  A    between atoms: _291  and  _292
REMARK  118  A    between atoms: _291  and  _294
REMARK  119  A    between atoms: _297  and  _299
REMARK  120  A    between atoms: _299  and  _300
REMARK  121  A    between atoms: _299  and  _302
REMARK  122  A    between atoms: _302  and  _303
REMARK  123  A    between atoms: _306  and  _308
REMARK  124  A    between atoms: _308  and  _309
REMARK  125  A    between atoms: _308  and  _311
REMARK  126  A    between atoms: _311  and  _312
REMARK  127  A    between atoms: _317  and  _319
REMARK  128  A    between atoms: _319  and  _320
REMARK  129  A    between atoms: _319  and  _322
REMARK  130  A    between atoms: _322  and  _323
REMARK  131  A    between atoms: _323  and  _324
REMARK  132  A    between atoms: _326  and  _328
REMARK  133  A    between atoms: _328  and  _329
REMARK  134  A    between atoms: _328  and  _331
REMARK  135  A    between atoms: _331  and  _332
REMARK  136  A    between atoms: _335  and  _337
REMARK  137  A    between atoms: _337  and  _338
REMARK  138  A    between atoms: _337  and  _340
REMARK  139  A    between atoms: _340  and  _341
REMARK  140  A    between atoms: _344  and  _346
REMARK  141  A    between atoms: _346  and  _347
REMARK  142  A    between atoms: _346  and  _349
REMARK  143  A    between atoms: _352  and  _354
REMARK  144  A    between atoms: _354  and  _355
REMARK  145  A    between atoms: _354  and  _357
REMARK  146  A    between atoms: _357  and  _358
REMARK  147  A    between atoms: _358  and  _359
REMARK  148  A    between atoms: _361  and  _363
REMARK  149  A    between atoms: _363  and  _364
REMARK  150  A    between atoms: _367  and  _369
REMARK  151  A    between atoms: _369  and  _370
REMARK  152  A    between atoms: _369  and  _372
REMARK  153  A    between atoms: _372  and  _373
REMARK  154  A    between atoms: _376  and  _378
REMARK  155  A    between atoms: _378  and  _379
REMARK  156  A    between atoms: _378  and  _381
REMARK  157  A    between atoms: _381  and  _382
REMARK  158  A    between atoms: _385  and  _387
REMARK  159  A    between atoms: _387  and  _388
REMARK  160  A    between atoms: _387  and  _390
REMARK  161  A    between atoms: _390  and  _391
REMARK  162  A    between atoms: _396  and  _397
REMARK  163  A    between atoms: _399  and  _401
REMARK  164  A    between atoms: _401  and  _402
REMARK  165  A    between atoms: _401  and  _404
REMARK  166  A    between atoms: _404  and  _405
REMARK  167  A    between atoms: _408  and  _410
REMARK  168  A    between atoms: _410  and  _411
REMARK  169  A    between atoms: _410  and  _413
REMARK  170  A    between atoms: _415  and  _417
REMARK  171  A    between atoms: _417  and  _418
REMARK  172  A    between atoms: _417  and  _420
REMARK  173  A    between atoms: _420  and  _421
REMARK  174  A    between atoms: _431  and  _433
REMARK  175  A    between atoms: _433  and  _434
REMARK  176  A    between atoms: _437  and  _439
REMARK  177  A    between atoms: _439  and  _440
REMARK  178  A    between atoms: _439  and  _442
REMARK  179  A    between atoms: _445  and  _447
REMARK  180  A    between atoms: _447  and  _448
REMARK  181  A    between atoms: _447  and  _450
REMARK  182  A    between atoms: _450  and  _451
REMARK  183  A    between atoms: _453  and  _455
REMARK  184  A    between atoms: _455  and  _456
REMARK  185  A    between atoms: _455  and  _458
REMARK  186  A    between atoms: _461  and  _463
REMARK  187  A    between atoms: _463  and  _464
REMARK  188  A    between atoms: _463  and  _466
REMARK  189  A    between atoms: _466  and  _467
REMARK  190  A    between atoms: _470  and  _472
REMARK  191  A    between atoms: _472  and  _473
REMARK  192  A    between atoms: _472  and  _475
REMARK  193  A    between atoms: _475  and  _476
REMARK  194  A    between atoms: _476  and  _477
REMARK  195  A    between atoms: _477  and  _478
REMARK  196  A    between atoms: _487  and  _489
REMARK  197  A    between atoms: _489  and  _490
REMARK  198  A    between atoms: _489  and  _492
REMARK  199  A    between atoms: _495  and  _497
REMARK  200  A    between atoms: _497  and  _498
REMARK  201  A    between atoms: _497  and  _500
REMARK  202  A    between atoms: _500  and  _501
REMARK  203  A    between atoms: _504  and  _506
REMARK  204  A    between atoms: _506  and  _507
REMARK  205  A    between atoms: _506  and  _509
REMARK  206  A    between atoms: _509  and  _510
REMARK  207  A    between atoms: _513  and  _515
REMARK  208  A    between atoms: _515  and  _516
REMARK  209  A    between atoms: _515  and  _518
REMARK  210  A    between atoms: _521  and  _523
REMARK  211  A    between atoms: _523  and  _524
REMARK  212  A    between atoms: _523  and  _526
REMARK  213  A    between atoms: _528  and  _530
REMARK  214  A    between atoms: _530  and  _531
REMARK  215  A    between atoms: _530  and  _533
REMARK  216  A    between atoms: _533  and  _534
REMARK  217  A    between atoms: _539  and  _541
REMARK  218  A    between atoms: _541  and  _542
REMARK  219  A    between atoms: _541  and  _544
REMARK  220  A    between atoms: _544  and  _545
REMARK  221  A    between atoms: _547  and  _549
REMARK  222  A    between atoms: _549  and  _550
REMARK  223  A    between atoms: _549  and  _552
REMARK  224  A    between atoms: _552  and  _553
REMARK                            x       y       z     vdW  Elec       q    Type
REMARK                         _______ _______ _______ _____ _____    ______ ____
ROOT
ATOM      1  O   HOH     1      69.938  18.830  31.051  0.00  0.00    +0.000 OA
ENDROOT
TORSDOF 0
REMARK  Name = ../refined-set-2016/1k27/1k27_pocket.pdb
REMARK  224 active torsions:
REMARK  status: ('A' for Active; 'I' for Inactive)
REMARK    1  A    between atoms: _1  and  _3
REMARK    2  A    between atoms: _3  and  _4
REMARK    3  A    between atoms: _6  and  _8
REMARK    4  A    between atoms: _8  and  _9
REMARK    5  A    between atoms: _8  and  _11
REMARK    6  A    between atoms: _11  and  _12
REMARK    7  A    between atoms: _15  and  _17
REMARK    8  A    between atoms: _17  and  _18
REMARK    9  A    between atoms: _20  and  _22
REMARK   10  A    between atoms: _22  and  _23
REMARK   11  A    between atoms: _22  and  _25
REMARK   12  A    between atoms: _25  and  _26
REMARK   13  A    between atoms: _26  and  _27
REMARK   14  A    between atoms: _27  and  _28
REMARK   15  A    between atoms: _37  and  _39
REMARK   16  A    between atoms: _39  and  _40
REMARK   17  A    between atoms: _39  and  _42
REMARK   18  A    between atoms: _42  and  _43
REMARK   19  A    between atoms: _48  and  _50
REMARK   20  A    between atoms: _50  and  _51
REMARK   21  A    between atoms: _50  and  _53
REMARK   22  A    between atoms: _53  and  _54
REMARK   23  A    between atoms: _59  and  _61
REMARK   24  A    between atoms: _61  and  _62
REMARK   25  A    between atoms: _61  and  _64
REMARK   26  A    between atoms: _64  and  _65
REMARK   27  A    between atoms: _68  and  _70
REMARK   28  A    between atoms: _70  and  _71
REMARK   29  A    between atoms: _70  and  _73
REMARK   30  A    between atoms: _73  and  _74
REMARK   31  A    between atoms: _74  and  _75
REMARK   32  A    between atoms: _78  and  _79
REMARK   33  A    between atoms: _84  and  _86
REMARK   34  A    between atoms: _86  and  _87
REMARK   35  A    between atoms: _86  and  _89
REMARK   36  A    between atoms: _89  and  _90
REMARK   37  A    between atoms: _92  and  _94
REMARK   38  A    between atoms: _94  and  _95
REMARK   39  A    between atoms: _94  and  _97
REMARK   40  A    between atoms: _100  and  _102
REMARK   41  A    between atoms: _102  and  _103
REMARK   42  A    between atoms: _102  and  _105
REMARK   43  A    between atoms: _105  and  _106
REMARK   44  A    between atoms: _111  and  _112
REMARK   45  A    between atoms: _114  and  _116
REMARK   46  A    between atoms: _116  and  _117
REMARK   47  A    between atoms: _116  and  _119
REMARK   48  A    between atoms: _119  and  _120
REMARK   49  A    between atoms: _123  and  _125
REMARK   50  A    between atoms: _125  and  _126
REMARK   51  A    between atoms: _129  and  _131
REMARK   52  A    between atoms: _131  and  _132
REMARK   53  A    between atoms: _131  and  _134
REMARK   54  A    between atoms: _136  and  _138
REMARK   55  A    between atoms: _138  and  _139
REMARK   56  A    between atoms: _141  and  _143
REMARK   57  A    between atoms: _143  and  _144
REMARK   58  A    between atoms: _143  and  _146
REMARK   59  A    between atoms: _146  and  _147
REMARK   60  A    between atoms: _149  and  _151
REMARK   61  A    between atoms: _151  and  _152
REMARK   62  A    between atoms: _151  and  _154
REMARK   63  A    between atoms: _154  and  _155
REMARK   64  A    between atoms: _158  and  _160
REMARK   65  A    between atoms: _160  and  _161
REMARK   66  A    between atoms: _160  and  _163
REMARK   67  A    between atoms: _163  and  _164
REMARK   68  A    between atoms: _164  and  _165
REMARK   69  A    between atoms: _165  and  _166
REMARK   70  A    between atoms: _175  and  _177
REMARK   71  A    between atoms: _177  and  _178
REMARK   72  A    between atoms: _177  and  _180
REMARK   73  A    between atoms: _180  and  _181
REMARK   74  A    between atoms: _181  and  _182
REMARK   75  A    between atoms: _184  and  _186
REMARK   76  A    between atoms: _186  and  _187
REMARK   77  A    between atoms: _186  and  _189
REMARK   78  A    between atoms: _192  and  _194
REMARK   79  A    between atoms: _194  and  _195
REMARK   80  A    between atoms: _194  and  _197
REMARK   81  A    between atoms: _197  and  _198
REMARK   82  A    between atoms: _201  and  _203
REMARK   83  A    between atoms: _203  and  _204
REMARK   84  A    between atoms: _203  and  _206
REMARK   85  A    between atoms: _206  and  _207
REMARK   86  A    between atoms: _210  and  _212
REMARK   87  A    between atoms: _212  and  _213
REMARK   88  A    between atoms: _212  and  _215
REMARK   89  A    between atoms: _215  and  _216
REMARK   90  A    between atoms: _216  and  _217
REMARK   91  A    between atoms: _220  and  _222
REMARK   92  A    between atoms: _222  and  _223
REMARK   93  A    between atoms: _226  and  _227
REMARK   94  A    between atoms: _232  and  _234
REMARK   95  A    between atoms: _234  and  _235
REMARK   96  A    between atoms: _234  and  _237
REMARK   97  A    between atoms: _237  and  _238
REMARK   98  A    between atoms: _238  and  _239
REMARK   99  A    between atoms: _239  and  _240
REMARK  100  A    between atoms: _249  and  _251
REMARK  101  A    between atoms: _251  and  _252
REMARK  102  A    between atoms: _251  and  _254
REMARK  103  A    between atoms: _254  and  _255
REMARK  104  A    between atoms: _261  and  _263
REMARK  105  A    between atoms: _263  and  _264
REMARK  106  A    between atoms: _263  and  _266
REMARK  107  A    between atoms: _266  and  _267
REMARK  108  A    between atoms: _269  and  _271
REMARK  109  A    between atoms: _271  and  _272
REMARK  110  A    between atoms: _271  and  _274
REMARK  111  A    between atoms: _274  and  _275
REMARK  112  A    between atoms: _277  and  _279
REMARK  113  A    between atoms: _279  and  _280
REMARK  114  A    between atoms: _279  and  _282
REMARK  115  A    between atoms: _282  and  _283
REMARK  116  A    between atoms: _289  and  _291
REMARK  117  A    between atoms: _291  and  _292
REMARK  118  A    between atoms: _291  and  _294
REMARK  119  A    between atoms: _297  and  _299
REMARK  120  A    between atoms: _299  and  _300
REMARK  121  A    between atoms: _299  and  _302
REMARK  122  A    between atoms: _302  and  _303
REMARK  123  A    between atoms: _306  and  _308
REMARK  124  A    between atoms: _308  and  _309
REMARK  125  A    between atoms: _308  and  _311
REMARK  126  A    between atoms: _311  and  _312
REMARK  127  A    between atoms: _317  and  _319
REMARK  128  A    between atoms: _319  and  _320
REMARK  129  A    between atoms: _319  and  _322
REMARK  130  A    between atoms: _322  and  _323
REMARK  131  A    between atoms: _323  and  _324
REMARK  132  A    between atoms: _326  and  _328
REMARK  133  A    between atoms: _328  and  _329
REMARK  134  A    between atoms: _328  and  _331
REMARK  135  A    between atoms: _331  and  _332
REMARK  136  A    between atoms: _335  and  _337
REMARK  137  A    between atoms: _337  and  _338
REMARK  138  A    between atoms: _337  and  _340
REMARK  139  A    between atoms: _340  and  _341
REMARK  140  A    between atoms: _344  and  _346
REMARK  141  A    between atoms: _346  and  _347
REMARK  142  A    between atoms: _346  and  _349
REMARK  143  A    between atoms: _352  and  _354
REMARK  144  A    between atoms: _354  and  _355
REMARK  145  A    between atoms: _354  and  _357
REMARK  146  A    between atoms: _357  and  _358
REMARK  147  A    between atoms: _358  and  _359
REMARK  148  A    between atoms: _361  and  _363
REMARK  149  A    between atoms: _363  and  _364
REMARK  150  A    between atoms: _367  and  _369
REMARK  151  A    between atoms: _369  and  _370
REMARK  152  A    between atoms: _369  and  _372
REMARK  153  A    between atoms: _372  and  _373
REMARK  154  A    between atoms: _376  and  _378
REMARK  155  A    between atoms: _378  and  _379
REMARK  156  A    between atoms: _378  and  _381
REMARK  157  A    between atoms: _381  and  _382
REMARK  158  A    between atoms: _385  and  _387
REMARK  159  A    between atoms: _387  and  _388
REMARK  160  A    between atoms: _387  and  _390
REMARK  161  A    between atoms: _390  and  _391
REMARK  162  A    between atoms: _396  and  _397
REMARK  163  A    between atoms: _399  and  _401
REMARK  164  A    between atoms: _401  and  _402
REMARK  165  A    between atoms: _401  and  _404
REMARK  166  A    between atoms: _404  and  _405
REMARK  167  A    between atoms: _408  and  _410
REMARK  168  A    between atoms: _410  and  _411
REMARK  169  A    between atoms: _410  and  _413
REMARK  170  A    between atoms: _415  and  _417
REMARK  171  A    between atoms: _417  and  _418
REMARK  172  A    between atoms: _417  and  _420
REMARK  173  A    between atoms: _420  and  _421
REMARK  174  A    between atoms: _431  and  _433
REMARK  175  A    between atoms: _433  and  _434
REMARK  176  A    between atoms: _437  and  _439
REMARK  177  A    between atoms: _439  and  _440
REMARK  178  A    between atoms: _439  and  _442
REMARK  179  A    between atoms: _445  and  _447
REMARK  180  A    between atoms: _447  and  _448
REMARK  181  A    between atoms: _447  and  _450
REMARK  182  A    between atoms: _450  and  _451
REMARK  183  A    between atoms: _453  and  _455
REMARK  184  A    between atoms: _455  and  _456
REMARK  185  A    between atoms: _455  and  _458
REMARK  186  A    between atoms: _461  and  _463
REMARK  187  A    between atoms: _463  and  _464
REMARK  188  A    between atoms: _463  and  _466
REMARK  189  A    between atoms: _466  and  _467
REMARK  190  A    between atoms: _470  and  _472
REMARK  191  A    between atoms: _472  and  _473
REMARK  192  A    between atoms: _472  and  _475
REMARK  193  A    between atoms: _475  and  _476
REMARK  194  A    between atoms: _476  and  _477
REMARK  195  A    between atoms: _477  and  _478
REMARK  196  A    between atoms: _487  and  _489
REMARK  197  A    between atoms: _489  and  _490
REMARK  198  A    between atoms: _489  and  _492
REMARK  199  A    between atoms: _495  and  _497
REMARK  200  A    between atoms: _497  and  _498
REMARK  201  A    between atoms: _497  and  _500
REMARK  202  A    between atoms: _500  and  _501
REMARK  203  A    between atoms: _504  and  _506
REMARK  204  A    between atoms: _506  and  _507
REMARK  205  A    between atoms: _506  and  _509
REMARK  206  A    between atoms: _509  and  _510
REMARK  207  A    between atoms: _513  and  _515
REMARK  208  A    between atoms: _515  and  _516
REMARK  209  A    between atoms: _515  and  _518
REMARK  210  A    between atoms: _521  and  _523
REMARK  211  A    between atoms: _523  and  _524
REMARK  212  A    between atoms: _523  and  _526
REMARK  213  A    between atoms: _528  and  _530
REMARK  214  A    between atoms: _530  and  _531
REMARK  215  A    between atoms: _530  and  _533
REMARK  216  A    between atoms: _533  and  _534
REMARK  217  A    between atoms: _539  and  _541
REMARK  218  A    between atoms: _541  and  _542
REMARK  219  A    between atoms: _541  and  _544
REMARK  220  A    between atoms: _544  and  _545
REMARK  221  A    between atoms: _547  and  _549
REMARK  222  A    between atoms: _549  and  _550
REMARK  223  A    between atoms: _549  and  _552
REMARK  224  A    between atoms: _552  and  _553
REMARK                            x       y       z     vdW  Elec       q    Type
REMARK                         _______ _______ _______ _____ _____    ______ ____
ROOT
ATOM      1  O   HOH     1      50.690  17.348  23.973  0.00  0.00    +0.000 OA
ENDROOT
TORSDOF 0
REMARK  Name = ../refined-set-2016/1k27/1k27_pocket.pdb
REMARK  224 active torsions:
REMARK  status: ('A' for Active; 'I' for Inactive)
REMARK    1  A    between atoms: _1  and  _3
REMARK    2  A    between atoms: _3  and  _4
REMARK    3  A    between atoms: _6  and  _8
REMARK    4  A    between atoms: _8  and  _9
REMARK    5  A    between atoms: _8  and  _11
REMARK    6  A    between atoms: _11  and  _12
REMARK    7  A    between atoms: _15  and  _17
REMARK    8  A    between atoms: _17  and  _18
REMARK    9  A    between atoms: _20  and  _22
REMARK   10  A    between atoms: _22  and  _23
REMARK   11  A    between atoms: _22  and  _25
REMARK   12  A    between atoms: _25  and  _26
REMARK   13  A    between atoms: _26  and  _27
REMARK   14  A    between atoms: _27  and  _28
REMARK   15  A    between atoms: _37  and  _39
REMARK   16  A    between atoms: _39  and  _40
REMARK   17  A    between atoms: _39  and  _42
REMARK   18  A    between atoms: _42  and  _43
REMARK   19  A    between atoms: _48  and  _50
REMARK   20  A    between atoms: _50  and  _51
REMARK   21  A    between atoms: _50  and  _53
REMARK   22  A    between atoms: _53  and  _54
REMARK   23  A    between atoms: _59  and  _61
REMARK   24  A    between atoms: _61  and  _62
REMARK   25  A    between atoms: _61  and  _64
REMARK   26  A    between atoms: _64  and  _65
REMARK   27  A    between atoms: _68  and  _70
REMARK   28  A    between atoms: _70  and  _71
REMARK   29  A    between atoms: _70  and  _73
REMARK   30  A    between atoms: _73  and  _74
REMARK   31  A    between atoms: _74  and  _75
REMARK   32  A    between atoms: _78  and  _79
REMARK   33  A    between atoms: _84  and  _86
REMARK   34  A    between atoms: _86  and  _87
REMARK   35  A    between atoms: _86  and  _89
REMARK   36  A    between atoms: _89  and  _90
REMARK   37  A    between atoms: _92  and  _94
REMARK   38  A    between atoms: _94  and  _95
REMARK   39  A    between atoms: _94  and  _97
REMARK   40  A    between atoms: _100  and  _102
REMARK   41  A    between atoms: _102  and  _103
REMARK   42  A    between atoms: _102  and  _105
REMARK   43  A    between atoms: _105  and  _106
REMARK   44  A    between atoms: _111  and  _112
REMARK   45  A    between atoms: _114  and  _116
REMARK   46  A    between atoms: _116  and  _117
REMARK   47  A    between atoms: _116  and  _119
REMARK   48  A    between atoms: _119  and  _120
REMARK   49  A    between atoms: _123  and  _125
REMARK   50  A    between atoms: _125  and  _126
REMARK   51  A    between atoms: _129  and  _131
REMARK   52  A    between atoms: _131  and  _132
REMARK   53  A    between atoms: _131  and  _134
REMARK   54  A    between atoms: _136  and  _138
REMARK   55  A    between atoms: _138  and  _139
REMARK   56  A    between atoms: _141  and  _143
REMARK   57  A    between atoms: _143  and  _144
REMARK   58  A    between atoms: _143  and  _146
REMARK   59  A    between atoms: _146  and  _147
REMARK   60  A    between atoms: _149  and  _151
REMARK   61  A    between atoms: _151  and  _152
REMARK   62  A    between atoms: _151  and  _154
REMARK   63  A    between atoms: _154  and  _155
REMARK   64  A    between atoms: _158  and  _160
REMARK   65  A    between atoms: _160  and  _161
REMARK   66  A    between atoms: _160  and  _163
REMARK   67  A    between atoms: _163  and  _164
REMARK   68  A    between atoms: _164  and  _165
REMARK   69  A    between atoms: _165  and  _166
REMARK   70  A    between atoms: _175  and  _177
REMARK   71  A    between atoms: _177  and  _178
REMARK   72  A    between atoms: _177  and  _180
REMARK   73  A    between atoms: _180  and  _181
REMARK   74  A    between atoms: _181  and  _182
REMARK   75  A    between atoms: _184  and  _186
REMARK   76  A    between atoms: _186  and  _187
REMARK   77  A    between atoms: _186  and  _189
REMARK   78  A    between atoms: _192  and  _194
REMARK   79  A    between atoms: _194  and  _195
REMARK   80  A    between atoms: _194  and  _197
REMARK   81  A    between atoms: _197  and  _198
REMARK   82  A    between atoms: _201  and  _203
REMARK   83  A    between atoms: _203  and  _204
REMARK   84  A    between atoms: _203  and  _206
REMARK   85  A    between atoms: _206  and  _207
REMARK   86  A    between atoms: _210  and  _212
REMARK   87  A    between atoms: _212  and  _213
REMARK   88  A    between atoms: _212  and  _215
REMARK   89  A    between atoms: _215  and  _216
REMARK   90  A    between atoms: _216  and  _217
REMARK   91  A    between atoms: _220  and  _222
REMARK   92  A    between atoms: _222  and  _223
REMARK   93  A    between atoms: _226  and  _227
REMARK   94  A    between atoms: _232  and  _234
REMARK   95  A    between atoms: _234  and  _235
REMARK   96  A    between atoms: _234  and  _237
REMARK   97  A    between atoms: _237  and  _238
REMARK   98  A    between atoms: _238  and  _239
REMARK   99  A    between atoms: _239  and  _240
REMARK  100  A    between atoms: _249  and  _251
REMARK  101  A    between atoms: _251  and  _252
REMARK  102  A    between atoms: _251  and  _254
REMARK  103  A    between atoms: _254  and  _255
REMARK  104  A    between atoms: _261  and  _263
REMARK  105  A    between atoms: _263  and  _264
REMARK  106  A    between atoms: _263  and  _266
REMARK  107  A    between atoms: _266  and  _267
REMARK  108  A    between atoms: _269  and  _271
REMARK  109  A    between atoms: _271  and  _272
REMARK  110  A    between atoms: _271  and  _274
REMARK  111  A    between atoms: _274  and  _275
REMARK  112  A    between atoms: _277  and  _279
REMARK  113  A    between atoms: _279  and  _280
REMARK  114  A    between atoms: _279  and  _282
REMARK  115  A    between atoms: _282  and  _283
REMARK  116  A    between atoms: _289  and  _291
REMARK  117  A    between atoms: _291  and  _292
REMARK  118  A    between atoms: _291  and  _294
REMARK  119  A    between atoms: _297  and  _299
REMARK  120  A    between atoms: _299  and  _300
REMARK  121  A    between atoms: _299  and  _302
REMARK  122  A    between atoms: _302  and  _303
REMARK  123  A    between atoms: _306  and  _308
REMARK  124  A    between atoms: _308  and  _309
REMARK  125  A    between atoms: _308  and  _311
REMARK  126  A    between atoms: _311  and  _312
REMARK  127  A    between atoms: _317  and  _319
REMARK  128  A    between atoms: _319  and  _320
REMARK  129  A    between atoms: _319  and  _322
REMARK  130  A    between atoms: _322  and  _323
REMARK  131  A    between atoms: _323  and  _324
REMARK  132  A    between atoms: _326  and  _328
REMARK  133  A    between atoms: _328  and  _329
REMARK  134  A    between atoms: _328  and  _331
REMARK  135  A    between atoms: _331  and  _332
REMARK  136  A    between atoms: _335  and  _337
REMARK  137  A    between atoms: _337  and  _338
REMARK  138  A    between atoms: _337  and  _340
REMARK  139  A    between atoms: _340  and  _341
REMARK  140  A    between atoms: _344  and  _346
REMARK  141  A    between atoms: _346  and  _347
REMARK  142  A    between atoms: _346  and  _349
REMARK  143  A    between atoms: _352  and  _354
REMARK  144  A    between atoms: _354  and  _355
REMARK  145  A    between atoms: _354  and  _357
REMARK  146  A    between atoms: _357  and  _358
REMARK  147  A    between atoms: _358  and  _359
REMARK  148  A    between atoms: _361  and  _363
REMARK  149  A    between atoms: _363  and  _364
REMARK  150  A    between atoms: _367  and  _369
REMARK  151  A    between atoms: _369  and  _370
REMARK  152  A    between atoms: _369  and  _372
REMARK  153  A    between atoms: _372  and  _373
REMARK  154  A    between atoms: _376  and  _378
REMARK  155  A    between atoms: _378  and  _379
REMARK  156  A    between atoms: _378  and  _381
REMARK  157  A    between atoms: _381  and  _382
REMARK  158  A    between atoms: _385  and  _387
REMARK  159  A    between atoms: _387  and  _388
REMARK  160  A    between atoms: _387  and  _390
REMARK  161  A    between atoms: _390  and  _391
REMARK  162  A    between atoms: _396  and  _397
REMARK  163  A    between atoms: _399  and  _401
REMARK  164  A    between atoms: _401  and  _402
REMARK  165  A    between atoms: _401  and  _404
REMARK  166  A    between atoms: _404  and  _405
REMARK  167  A    between atoms: _408  and  _410
REMARK  168  A    between atoms: _410  and  _411
REMARK  169  A    between atoms: _410  and  _413
REMARK  170  A    between atoms: _415  and  _417
REMARK  171  A    between atoms: _417  and  _418
REMARK  172  A    between atoms: _417  and  _420
REMARK  173  A    between atoms: _420  and  _421
REMARK  174  A    between atoms: _431  and  _433
REMARK  175  A    between atoms: _433  and  _434
REMARK  176  A    between atoms: _437  and  _439
REMARK  177  A    between atoms: _439  and  _440
REMARK  178  A    between atoms: _439  and  _442
REMARK  179  A    between atoms: _445  and  _447
REMARK  180  A    between atoms: _447  and  _448
REMARK  181  A    between atoms: _447  and  _450
REMARK  182  A    between atoms: _450  and  _451
REMARK  183  A    between atoms: _453  and  _455
REMARK  184  A    between atoms: _455  and  _456
REMARK  185  A    between atoms: _455  and  _458
REMARK  186  A    between atoms: _461  and  _463
REMARK  187  A    between atoms: _463  and  _464
REMARK  188  A    between atoms: _463  and  _466
REMARK  189  A    between atoms: _466  and  _467
REMARK  190  A    between atoms: _470  and  _472
REMARK  191  A    between atoms: _472  and  _473
REMARK  192  A    between atoms: _472  and  _475
REMARK  193  A    between atoms: _475  and  _476
REMARK  194  A    between atoms: _476  and  _477
REMARK  195  A    between atoms: _477  and  _478
REMARK  196  A    between atoms: _487  and  _489
REMARK  197  A    between atoms: _489  and  _490
REMARK  198  A    between atoms: _489  and  _492
REMARK  199  A    between atoms: _495  and  _497
REMARK  200  A    between atoms: _497  and  _498
REMARK  201  A    between atoms: _497  and  _500
REMARK  202  A    between atoms: _500  and  _501
REMARK  203  A    between atoms: _504  and  _506
REMARK  204  A    between atoms: _506  and  _507
REMARK  205  A    between atoms: _506  and  _509
REMARK  206  A    between atoms: _509  and  _510
REMARK  207  A    between atoms: _513  and  _515
REMARK  208  A    between atoms: _515  and  _516
REMARK  209  A    between atoms: _515  and  _518
REMARK  210  A    between atoms: _521  and  _523
REMARK  211  A    between atoms: _523  and  _524
REMARK  212  A    between atoms: _523  and  _526
REMARK  213  A    between atoms: _528  and  _530
REMARK  214  A    between atoms: _530  and  _531
REMARK  215  A    between atoms: _530  and  _533
REMARK  216  A    between atoms: _533  and  _534
REMARK  217  A    between atoms: _539  and  _541
REMARK  218  A    between atoms: _541  and  _542
REMARK  219  A    between atoms: _541  and  _544
REMARK  220  A    between atoms: _544  and  _545
REMARK  221  A    between atoms: _547  and  _549
REMARK  222  A    between atoms: _549  and  _550
REMARK  223  A    between atoms: _549  and  _552
REMARK  224  A    between atoms: _552  and  _553
REMARK                            x       y       z     vdW  Elec       q    Type
REMARK                         _______ _______ _______ _____ _____    ______ ____
ROOT
ATOM      1  O   HOH     1      60.684  16.355  35.376  0.00  0.00    +0.000 OA
ENDROOT
TORSDOF 0
REMARK  Name = ../refined-set-2016/1k27/1k27_pocket.pdb
REMARK  224 active torsions:
REMARK  status: ('A' for Active; 'I' for Inactive)
REMARK    1  A    between atoms: _1  and  _3
REMARK    2  A    between atoms: _3  and  _4
REMARK    3  A    between atoms: _6  and  _8
REMARK    4  A    between atoms: _8  and  _9
REMARK    5  A    between atoms: _8  and  _11
REMARK    6  A    between atoms: _11  and  _12
REMARK    7  A    between atoms: _15  and  _17
REMARK    8  A    between atoms: _17  and  _18
REMARK    9  A    between atoms: _20  and  _22
REMARK   10  A    between atoms: _22  and  _23
REMARK   11  A    between atoms: _22  and  _25
REMARK   12  A    between atoms: _25  and  _26
REMARK   13  A    between atoms: _26  and  _27
REMARK   14  A    between atoms: _27  and  _28
REMARK   15  A    between atoms: _37  and  _39
REMARK   16  A    between atoms: _39  and  _40
REMARK   17  A    between atoms: _39  and  _42
REMARK   18  A    between atoms: _42  and  _43
REMARK   19  A    between atoms: _48  and  _50
REMARK   20  A    between atoms: _50  and  _51
REMARK   21  A    between atoms: _50  and  _53
REMARK   22  A    between atoms: _53  and  _54
REMARK   23  A    between atoms: _59  and  _61
REMARK   24  A    between atoms: _61  and  _62
REMARK   25  A    between atoms: _61  and  _64
REMARK   26  A    between atoms: _64  and  _65
REMARK   27  A    between atoms: _68  and  _70
REMARK   28  A    between atoms: _70  and  _71
REMARK   29  A    between atoms: _70  and  _73
REMARK   30  A    between atoms: _73  and  _74
REMARK   31  A    between atoms: _74  and  _75
REMARK   32  A    between atoms: _78  and  _79
REMARK   33  A    between atoms: _84  and  _86
REMARK   34  A    between atoms: _86  and  _87
REMARK   35  A    between atoms: _86  and  _89
REMARK   36  A    between atoms: _89  and  _90
REMARK   37  A    between atoms: _92  and  _94
REMARK   38  A    between atoms: _94  and  _95
REMARK   39  A    between atoms: _94  and  _97
REMARK   40  A    between atoms: _100  and  _102
REMARK   41  A    between atoms: _102  and  _103
REMARK   42  A    between atoms: _102  and  _105
REMARK   43  A    between atoms: _105  and  _106
REMARK   44  A    between atoms: _111  and  _112
REMARK   45  A    between atoms: _114  and  _116
REMARK   46  A    between atoms: _116  and  _117
REMARK   47  A    between atoms: _116  and  _119
REMARK   48  A    between atoms: _119  and  _120
REMARK   49  A    between atoms: _123  and  _125
REMARK   50  A    between atoms: _125  and  _126
REMARK   51  A    between atoms: _129  and  _131
REMARK   52  A    between atoms: _131  and  _132
REMARK   53  A    between atoms: _131  and  _134
REMARK   54  A    between atoms: _136  and  _138
REMARK   55  A    between atoms: _138  and  _139
REMARK   56  A    between atoms: _141  and  _143
REMARK   57  A    between atoms: _143  and  _144
REMARK   58  A    between atoms: _143  and  _146
REMARK   59  A    between atoms: _146  and  _147
REMARK   60  A    between atoms: _149  and  _151
REMARK   61  A    between atoms: _151  and  _152
REMARK   62  A    between atoms: _151  and  _154
REMARK   63  A    between atoms: _154  and  _155
REMARK   64  A    between atoms: _158  and  _160
REMARK   65  A    between atoms: _160  and  _161
REMARK   66  A    between atoms: _160  and  _163
REMARK   67  A    between atoms: _163  and  _164
REMARK   68  A    between atoms: _164  and  _165
REMARK   69  A    between atoms: _165  and  _166
REMARK   70  A    between atoms: _175  and  _177
REMARK   71  A    between atoms: _177  and  _178
REMARK   72  A    between atoms: _177  and  _180
REMARK   73  A    between atoms: _180  and  _181
REMARK   74  A    between atoms: _181  and  _182
REMARK   75  A    between atoms: _184  and  _186
REMARK   76  A    between atoms: _186  and  _187
REMARK   77  A    between atoms: _186  and  _189
REMARK   78  A    between atoms: _192  and  _194
REMARK   79  A    between atoms: _194  and  _195
REMARK   80  A    between atoms: _194  and  _197
REMARK   81  A    between atoms: _197  and  _198
REMARK   82  A    between atoms: _201  and  _203
REMARK   83  A    between atoms: _203  and  _204
REMARK   84  A    between atoms: _203  and  _206
REMARK   85  A    between atoms: _206  and  _207
REMARK   86  A    between atoms: _210  and  _212
REMARK   87  A    between atoms: _212  and  _213
REMARK   88  A    between atoms: _212  and  _215
REMARK   89  A    between atoms: _215  and  _216
REMARK   90  A    between atoms: _216  and  _217
REMARK   91  A    between atoms: _220  and  _222
REMARK   92  A    between atoms: _222  and  _223
REMARK   93  A    between atoms: _226  and  _227
REMARK   94  A    between atoms: _232  and  _234
REMARK   95  A    between atoms: _234  and  _235
REMARK   96  A    between atoms: _234  and  _237
REMARK   97  A    between atoms: _237  and  _238
REMARK   98  A    between atoms: _238  and  _239
REMARK   99  A    between atoms: _239  and  _240
REMARK  100  A    between atoms: _249  and  _251
REMARK  101  A    between atoms: _251  and  _252
REMARK  102  A    between atoms: _251  and  _254
REMARK  103  A    between atoms: _254  and  _255
REMARK  104  A    between atoms: _261  and  _263
REMARK  105  A    between atoms: _263  and  _264
REMARK  106  A    between atoms: _263  and  _266
REMARK  107  A    between atoms: _266  and  _267
REMARK  108  A    between atoms: _269  and  _271
REMARK  109  A    between atoms: _271  and  _272
REMARK  110  A    between atoms: _271  and  _274
REMARK  111  A    between atoms: _274  and  _275
REMARK  112  A    between atoms: _277  and  _279
REMARK  113  A    between atoms: _279  and  _280
REMARK  114  A    between atoms: _279  and  _282
REMARK  115  A    between atoms: _282  and  _283
REMARK  116  A    between atoms: _289  and  _291
REMARK  117  A    between atoms: _291  and  _292
REMARK  118  A    between atoms: _291  and  _294
REMARK  119  A    between atoms: _297  and  _299
REMARK  120  A    between atoms: _299  and  _300
REMARK  121  A    between atoms: _299  and  _302
REMARK  122  A    between atoms: _302  and  _303
REMARK  123  A    between atoms: _306  and  _308
REMARK  124  A    between atoms: _308  and  _309
REMARK  125  A    between atoms: _308  and  _311
REMARK  126  A    between atoms: _311  and  _312
REMARK  127  A    between atoms: _317  and  _319
REMARK  128  A    between atoms: _319  and  _320
REMARK  129  A    between atoms: _319  and  _322
REMARK  130  A    between atoms: _322  and  _323
REMARK  131  A    between atoms: _323  and  _324
REMARK  132  A    between atoms: _326  and  _328
REMARK  133  A    between atoms: _328  and  _329
REMARK  134  A    between atoms: _328  and  _331
REMARK  135  A    between atoms: _331  and  _332
REMARK  136  A    between atoms: _335  and  _337
REMARK  137  A    between atoms: _337  and  _338
REMARK  138  A    between atoms: _337  and  _340
REMARK  139  A    between atoms: _340  and  _341
REMARK  140  A    between atoms: _344  and  _346
REMARK  141  A    between atoms: _346  and  _347
REMARK  142  A    between atoms: _346  and  _349
REMARK  143  A    between atoms: _352  and  _354
REMARK  144  A    between atoms: _354  and  _355
REMARK  145  A    between atoms: _354  and  _357
REMARK  146  A    between atoms: _357  and  _358
REMARK  147  A    between atoms: _358  and  _359
REMARK  148  A    between atoms: _361  and  _363
REMARK  149  A    between atoms: _363  and  _364
REMARK  150  A    between atoms: _367  and  _369
REMARK  151  A    between atoms: _369  and  _370
REMARK  152  A    between atoms: _369  and  _372
REMARK  153  A    between atoms: _372  and  _373
REMARK  154  A    between atoms: _376  and  _378
REMARK  155  A    between atoms: _378  and  _379
REMARK  156  A    between atoms: _378  and  _381
REMARK  157  A    between atoms: _381  and  _382
REMARK  158  A    between atoms: _385  and  _387
REMARK  159  A    between atoms: _387  and  _388
REMARK  160  A    between atoms: _387  and  _390
REMARK  161  A    between atoms: _390  and  _391
REMARK  162  A    between atoms: _396  and  _397
REMARK  163  A    between atoms: _399  and  _401
REMARK  164  A    between atoms: _401  and  _402
REMARK  165  A    between atoms: _401  and  _404
REMARK  166  A    between atoms: _404  and  _405
REMARK  167  A    between atoms: _408  and  _410
REMARK  168  A    between atoms: _410  and  _411
REMARK  169  A    between atoms: _410  and  _413
REMARK  170  A    between atoms: _415  and  _417
REMARK  171  A    between atoms: _417  and  _418
REMARK  172  A    between atoms: _417  and  _420
REMARK  173  A    between atoms: _420  and  _421
REMARK  174  A    between atoms: _431  and  _433
REMARK  175  A    between atoms: _433  and  _434
REMARK  176  A    between atoms: _437  and  _439
REMARK  177  A    between atoms: _439  and  _440
REMARK  178  A    between atoms: _439  and  _442
REMARK  179  A    between atoms: _445  and  _447
REMARK  180  A    between atoms: _447  and  _448
REMARK  181  A    between atoms: _447  and  _450
REMARK  182  A    between atoms: _450  and  _451
REMARK  183  A    between atoms: _453  and  _455
REMARK  184  A    between atoms: _455  and  _456
REMARK  185  A    between atoms: _455  and  _458
REMARK  186  A    between atoms: _461  and  _463
REMARK  187  A    between atoms: _463  and  _464
REMARK  188  A    between atoms: _463  and  _466
REMARK  189  A    between atoms: _466  and  _467
REMARK  190  A    between atoms: _470  and  _472
REMARK  191  A    between atoms: _472  and  _473
REMARK  192  A    between atoms: _472  and  _475
REMARK  193  A    between atoms: _475  and  _476
REMARK  194  A    between atoms: _476  and  _477
REMARK  195  A    between atoms: _477  and  _478
REMARK  196  A    between atoms: _487  and  _489
REMARK  197  A    between atoms: _489  and  _490
REMARK  198  A    between atoms: _489  and  _492
REMARK  199  A    between atoms: _495  and  _497
REMARK  200  A    between atoms: _497  and  _498
REMARK  201  A    between atoms: _497  and  _500
REMARK  202  A    between atoms: _500  and  _501
REMARK  203  A    between atoms: _504  and  _506
REMARK  204  A    between atoms: _506  and  _507
REMARK  205  A    between atoms: _506  and  _509
REMARK  206  A    between atoms: _509  and  _510
REMARK  207  A    between atoms: _513  and  _515
REMARK  208  A    between atoms: _515  and  _516
REMARK  209  A    between atoms: _515  and  _518
REMARK  210  A    between atoms: _521  and  _523
REMARK  211  A    between atoms: _523  and  _524
REMARK  212  A    between atoms: _523  and  _526
REMARK  213  A    between atoms: _528  and  _530
REMARK  214  A    between atoms: _530  and  _531
REMARK  215  A    between atoms: _530  and  _533
REMARK  216  A    between atoms: _533  and  _534
REMARK  217  A    between atoms: _539  and  _541
REMARK  218  A    between atoms: _541  and  _542
REMARK  219  A    between atoms: _541  and  _544
REMARK  220  A    between atoms: _544  and  _545
REMARK  221  A    between atoms: _547  and  _549
REMARK  222  A    between atoms: _549  and  _550
REMARK  223  A    between atoms: _549  and  _552
REMARK  224  A    between atoms: _552  and  _553
REMARK                            x       y       z     vdW  Elec       q    Type
REMARK                         _______ _______ _______ _____ _____    ______ ____
ROOT
ATOM      1  O   HOH     1      51.632  19.482  25.020  0.00  0.00    +0.000 OA
ENDROOT
TORSDOF 0
REMARK  Name = ../refined-set-2016/1k27/1k27_pocket.pdb
REMARK  224 active torsions:
REMARK  status: ('A' for Active; 'I' for Inactive)
REMARK    1  A    between atoms: _1  and  _3
REMARK    2  A    between atoms: _3  and  _4
REMARK    3  A    between atoms: _6  and  _8
REMARK    4  A    between atoms: _8  and  _9
REMARK    5  A    between atoms: _8  and  _11
REMARK    6  A    between atoms: _11  and  _12
REMARK    7  A    between atoms: _15  and  _17
REMARK    8  A    between atoms: _17  and  _18
REMARK    9  A    between atoms: _20  and  _22
REMARK   10  A    between atoms: _22  and  _23
REMARK   11  A    between atoms: _22  and  _25
REMARK   12  A    between atoms: _25  and  _26
REMARK   13  A    between atoms: _26  and  _27
REMARK   14  A    between atoms: _27  and  _28
REMARK   15  A    between atoms: _37  and  _39
REMARK   16  A    between atoms: _39  and  _40
REMARK   17  A    between atoms: _39  and  _42
REMARK   18  A    between atoms: _42  and  _43
REMARK   19  A    between atoms: _48  and  _50
REMARK   20  A    between atoms: _50  and  _51
REMARK   21  A    between atoms: _50  and  _53
REMARK   22  A    between atoms: _53  and  _54
REMARK   23  A    between atoms: _59  and  _61
REMARK   24  A    between atoms: _61  and  _62
REMARK   25  A    between atoms: _61  and  _64
REMARK   26  A    between atoms: _64  and  _65
REMARK   27  A    between atoms: _68  and  _70
REMARK   28  A    between atoms: _70  and  _71
REMARK   29  A    between atoms: _70  and  _73
REMARK   30  A    between atoms: _73  and  _74
REMARK   31  A    between atoms: _74  and  _75
REMARK   32  A    between atoms: _78  and  _79
REMARK   33  A    between atoms: _84  and  _86
REMARK   34  A    between atoms: _86  and  _87
REMARK   35  A    between atoms: _86  and  _89
REMARK   36  A    between atoms: _89  and  _90
REMARK   37  A    between atoms: _92  and  _94
REMARK   38  A    between atoms: _94  and  _95
REMARK   39  A    between atoms: _94  and  _97
REMARK   40  A    between atoms: _100  and  _102
REMARK   41  A    between atoms: _102  and  _103
REMARK   42  A    between atoms: _102  and  _105
REMARK   43  A    between atoms: _105  and  _106
REMARK   44  A    between atoms: _111  and  _112
REMARK   45  A    between atoms: _114  and  _116
REMARK   46  A    between atoms: _116  and  _117
REMARK   47  A    between atoms: _116  and  _119
REMARK   48  A    between atoms: _119  and  _120
REMARK   49  A    between atoms: _123  and  _125
REMARK   50  A    between atoms: _125  and  _126
REMARK   51  A    between atoms: _129  and  _131
REMARK   52  A    between atoms: _131  and  _132
REMARK   53  A    between atoms: _131  and  _134
REMARK   54  A    between atoms: _136  and  _138
REMARK   55  A    between atoms: _138  and  _139
REMARK   56  A    between atoms: _141  and  _143
REMARK   57  A    between atoms: _143  and  _144
REMARK   58  A    between atoms: _143  and  _146
REMARK   59  A    between atoms: _146  and  _147
REMARK   60  A    between atoms: _149  and  _151
REMARK   61  A    between atoms: _151  and  _152
REMARK   62  A    between atoms: _151  and  _154
REMARK   63  A    between atoms: _154  and  _155
REMARK   64  A    between atoms: _158  and  _160
REMARK   65  A    between atoms: _160  and  _161
REMARK   66  A    between atoms: _160  and  _163
REMARK   67  A    between atoms: _163  and  _164
REMARK   68  A    between atoms: _164  and  _165
REMARK   69  A    between atoms: _165  and  _166
REMARK   70  A    between atoms: _175  and  _177
REMARK   71  A    between atoms: _177  and  _178
REMARK   72  A    between atoms: _177  and  _180
REMARK   73  A    between atoms: _180  and  _181
REMARK   74  A    between atoms: _181  and  _182
REMARK   75  A    between atoms: _184  and  _186
REMARK   76  A    between atoms: _186  and  _187
REMARK   77  A    between atoms: _186  and  _189
REMARK   78  A    between atoms: _192  and  _194
REMARK   79  A    between atoms: _194  and  _195
REMARK   80  A    between atoms: _194  and  _197
REMARK   81  A    between atoms: _197  and  _198
REMARK   82  A    between atoms: _201  and  _203
REMARK   83  A    between atoms: _203  and  _204
REMARK   84  A    between atoms: _203  and  _206
REMARK   85  A    between atoms: _206  and  _207
REMARK   86  A    between atoms: _210  and  _212
REMARK   87  A    between atoms: _212  and  _213
REMARK   88  A    between atoms: _212  and  _215
REMARK   89  A    between atoms: _215  and  _216
REMARK   90  A    between atoms: _216  and  _217
REMARK   91  A    between atoms: _220  and  _222
REMARK   92  A    between atoms: _222  and  _223
REMARK   93  A    between atoms: _226  and  _227
REMARK   94  A    between atoms: _232  and  _234
REMARK   95  A    between atoms: _234  and  _235
REMARK   96  A    between atoms: _234  and  _237
REMARK   97  A    between atoms: _237  and  _238
REMARK   98  A    between atoms: _238  and  _239
REMARK   99  A    between atoms: _239  and  _240
REMARK  100  A    between atoms: _249  and  _251
REMARK  101  A    between atoms: _251  and  _252
REMARK  102  A    between atoms: _251  and  _254
REMARK  103  A    between atoms: _254  and  _255
REMARK  104  A    between atoms: _261  and  _263
REMARK  105  A    between atoms: _263  and  _264
REMARK  106  A    between atoms: _263  and  _266
REMARK  107  A    between atoms: _266  and  _267
REMARK  108  A    between atoms: _269  and  _271
REMARK  109  A    between atoms: _271  and  _272
REMARK  110  A    between atoms: _271  and  _274
REMARK  111  A    between atoms: _274  and  _275
REMARK  112  A    between atoms: _277  and  _279
REMARK  113  A    between atoms: _279  and  _280
REMARK  114  A    between atoms: _279  and  _282
REMARK  115  A    between atoms: _282  and  _283
REMARK  116  A    between atoms: _289  and  _291
REMARK  117  A    between atoms: _291  and  _292
REMARK  118  A    between atoms: _291  and  _294
REMARK  119  A    between atoms: _297  and  _299
REMARK  120  A    between atoms: _299  and  _300
REMARK  121  A    between atoms: _299  and  _302
REMARK  122  A    between atoms: _302  and  _303
REMARK  123  A    between atoms: _306  and  _308
REMARK  124  A    between atoms: _308  and  _309
REMARK  125  A    between atoms: _308  and  _311
REMARK  126  A    between atoms: _311  and  _312
REMARK  127  A    between atoms: _317  and  _319
REMARK  128  A    between atoms: _319  and  _320
REMARK  129  A    between atoms: _319  and  _322
REMARK  130  A    between atoms: _322  and  _323
REMARK  131  A    between atoms: _323  and  _324
REMARK  132  A    between atoms: _326  and  _328
REMARK  133  A    between atoms: _328  and  _329
REMARK  134  A    between atoms: _328  and  _331
REMARK  135  A    between atoms: _331  and  _332
REMARK  136  A    between atoms: _335  and  _337
REMARK  137  A    between atoms: _337  and  _338
REMARK  138  A    between atoms: _337  and  _340
REMARK  139  A    between atoms: _340  and  _341
REMARK  140  A    between atoms: _344  and  _346
REMARK  141  A    between atoms: _346  and  _347
REMARK  142  A    between atoms: _346  and  _349
REMARK  143  A    between atoms: _352  and  _354
REMARK  144  A    between atoms: _354  and  _355
REMARK  145  A    between atoms: _354  and  _357
REMARK  146  A    between atoms: _357  and  _358
REMARK  147  A    between atoms: _358  and  _359
REMARK  148  A    between atoms: _361  and  _363
REMARK  149  A    between atoms: _363  and  _364
REMARK  150  A    between atoms: _367  and  _369
REMARK  151  A    between atoms: _369  and  _370
REMARK  152  A    between atoms: _369  and  _372
REMARK  153  A    between atoms: _372  and  _373
REMARK  154  A    between atoms: _376  and  _378
REMARK  155  A    between atoms: _378  and  _379
REMARK  156  A    between atoms: _378  and  _381
REMARK  157  A    between atoms: _381  and  _382
REMARK  158  A    between atoms: _385  and  _387
REMARK  159  A    between atoms: _387  and  _388
REMARK  160  A    between atoms: _387  and  _390
REMARK  161  A    between atoms: _390  and  _391
REMARK  162  A    between atoms: _396  and  _397
REMARK  163  A    between atoms: _399  and  _401
REMARK  164  A    between atoms: _401  and  _402
REMARK  165  A    between atoms: _401  and  _404
REMARK  166  A    between atoms: _404  and  _405
REMARK  167  A    between atoms: _408  and  _410
REMARK  168  A    between atoms: _410  and  _411
REMARK  169  A    between atoms: _410  and  _413
REMARK  170  A    between atoms: _415  and  _417
REMARK  171  A    between atoms: _417  and  _418
REMARK  172  A    between atoms: _417  and  _420
REMARK  173  A    between atoms: _420  and  _421
REMARK  174  A    between atoms: _431  and  _433
REMARK  175  A    between atoms: _433  and  _434
REMARK  176  A    between atoms: _437  and  _439
REMARK  177  A    between atoms: _439  and  _440
REMARK  178  A    between atoms: _439  and  _442
REMARK  179  A    between atoms: _445  and  _447
REMARK  180  A    between atoms: _447  and  _448
REMARK  181  A    between atoms: _447  and  _450
REMARK  182  A    between atoms: _450  and  _451
REMARK  183  A    between atoms: _453  and  _455
REMARK  184  A    between atoms: _455  and  _456
REMARK  185  A    between atoms: _455  and  _458
REMARK  186  A    between atoms: _461  and  _463
REMARK  187  A    between atoms: _463  and  _464
REMARK  188  A    between atoms: _463  and  _466
REMARK  189  A    between atoms: _466  and  _467
REMARK  190  A    between atoms: _470  and  _472
REMARK  191  A    between atoms: _472  and  _473
REMARK  192  A    between atoms: _472  and  _475
REMARK  193  A    between atoms: _475  and  _476
REMARK  194  A    between atoms: _476  and  _477
REMARK  195  A    between atoms: _477  and  _478
REMARK  196  A    between atoms: _487  and  _489
REMARK  197  A    between atoms: _489  and  _490
REMARK  198  A    between atoms: _489  and  _492
REMARK  199  A    between atoms: _495  and  _497
REMARK  200  A    between atoms: _497  and  _498
REMARK  201  A    between atoms: _497  and  _500
REMARK  202  A    between atoms: _500  and  _501
REMARK  203  A    between atoms: _504  and  _506
REMARK  204  A    between atoms: _506  and  _507
REMARK  205  A    between atoms: _506  and  _509
REMARK  206  A    between atoms: _509  and  _510
REMARK  207  A    between atoms: _513  and  _515
REMARK  208  A    between atoms: _515  and  _516
REMARK  209  A    between atoms: _515  and  _518
REMARK  210  A    between atoms: _521  and  _523
REMARK  211  A    between atoms: _523  and  _524
REMARK  212  A    between atoms: _523  and  _526
REMARK  213  A    between atoms: _528  and  _530
REMARK  214  A    between atoms: _530  and  _531
REMARK  215  A    between atoms: _530  and  _533
REMARK  216  A    between atoms: _533  and  _534
REMARK  217  A    between atoms: _539  and  _541
REMARK  218  A    between atoms: _541  and  _542
REMARK  219  A    between atoms: _541  and  _544
REMARK  220  A    between atoms: _544  and  _545
REMARK  221  A    between atoms: _547  and  _549
REMARK  222  A    between atoms: _549  and  _550
REMARK  223  A    between atoms: _549  and  _552
REMARK  224  A    between atoms: _552  and  _553
REMARK                            x       y       z     vdW  Elec       q    Type
REMARK                         _______ _______ _______ _____ _____    ______ ____
ROOT
ATOM      1  O   HOH     1      51.448  14.727  30.198  0.00  0.00    +0.000 OA
ENDROOT
TORSDOF 0
