REMARK  Name = ../refined-set-2016/1w4o/1w4o_pocket.pdb
REMARK  141 active torsions:
REMARK  status: ('A' for Active; 'I' for Inactive)
REMARK    1  A    between atoms: _1  and  _3
REMARK    2  A    between atoms: _3  and  _4
REMARK    3  A    between atoms: _7  and  _9
REMARK    4  A    between atoms: _9  and  _10
REMARK    5  A    between atoms: _9  and  _12
REMARK    6  A    between atoms: _12  and  _13
REMARK    7  A    between atoms: _13  and  _14
REMARK    8  A    between atoms: _14  and  _15
REMARK    9  A    between atoms: _15  and  _16
REMARK   10  A    between atoms: _20  and  _22
REMARK   11  A    between atoms: _22  and  _23
REMARK   12  A    between atoms: _22  and  _25
REMARK   13  A    between atoms: _25  and  _26
REMARK   14  A    between atoms: _32  and  _34
REMARK   15  A    between atoms: _34  and  _35
REMARK   16  A    between atoms: _34  and  _37
REMARK   17  A    between atoms: _37  and  _38
REMARK   18  A    between atoms: _38  and  _39
REMARK   19  A    between atoms: _39  and  _40
REMARK   20  A    between atoms: _49  and  _51
REMARK   21  A    between atoms: _51  and  _52
REMARK   22  A    between atoms: _51  and  _54
REMARK   23  A    between atoms: _54  and  _55
REMARK   24  A    between atoms: _55  and  _56
REMARK   25  A    between atoms: _61  and  _63
REMARK   26  A    between atoms: _63  and  _64
REMARK   27  A    between atoms: _63  and  _66
REMARK   28  A    between atoms: _66  and  _67
REMARK   29  A    between atoms: _72  and  _74
REMARK   30  A    between atoms: _74  and  _75
REMARK   31  A    between atoms: _74  and  _77
REMARK   32  A    between atoms: _77  and  _78
REMARK   33  A    between atoms: _78  and  _79
REMARK   34  A    between atoms: _81  and  _83
REMARK   35  A    between atoms: _83  and  _84
REMARK   36  A    between atoms: _83  and  _86
REMARK   37  A    between atoms: _86  and  _87
REMARK   38  A    between atoms: _90  and  _92
REMARK   39  A    between atoms: _92  and  _93
REMARK   40  A    between atoms: _92  and  _95
REMARK   41  A    between atoms: _95  and  _96
REMARK   42  A    between atoms: _96  and  _97
REMARK   43  A    between atoms: _97  and  _98
REMARK   44  A    between atoms: _107  and  _109
REMARK   45  A    between atoms: _109  and  _110
REMARK   46  A    between atoms: _109  and  _112
REMARK   47  A    between atoms: _112  and  _113
REMARK   48  A    between atoms: _113  and  _114
REMARK   49  A    between atoms: _114  and  _115
REMARK   50  A    between atoms: _115  and  _116
REMARK   51  A    between atoms: _121  and  _122
REMARK   52  A    between atoms: _127  and  _129
REMARK   53  A    between atoms: _129  and  _130
REMARK   54  A    between atoms: _129  and  _132
REMARK   55  A    between atoms: _135  and  _137
REMARK   56  A    between atoms: _137  and  _138
REMARK   57  A    between atoms: _137  and  _140
REMARK   58  A    between atoms: _140  and  _141
REMARK   59  A    between atoms: _146  and  _148
REMARK   60  A    between atoms: _148  and  _149
REMARK   61  A    between atoms: _148  and  _151
REMARK   62  A    between atoms: _151  and  _152
REMARK   63  A    between atoms: _155  and  _157
REMARK   64  A    between atoms: _157  and  _158
REMARK   65  A    between atoms: _157  and  _160
REMARK   66  A    between atoms: _160  and  _161
REMARK   67  A    between atoms: _167  and  _169
REMARK   68  A    between atoms: _169  and  _170
REMARK   69  A    between atoms: _169  and  _172
REMARK   70  A    between atoms: _175  and  _177
REMARK   71  A    between atoms: _177  and  _178
REMARK   72  A    between atoms: _177  and  _180
REMARK   73  A    between atoms: _180  and  _181
REMARK   74  A    between atoms: _181  and  _182
REMARK   75  A    between atoms: _182  and  _183
REMARK   76  A    between atoms: _183  and  _184
REMARK   77  A    between atoms: _188  and  _190
REMARK   78  A    between atoms: _190  and  _191
REMARK   79  A    between atoms: _190  and  _193
REMARK   80  A    between atoms: _193  and  _194
REMARK   81  A    between atoms: _197  and  _199
REMARK   82  A    between atoms: _199  and  _200
REMARK   83  A    between atoms: _199  and  _202
REMARK   84  A    between atoms: _202  and  _203
REMARK   85  A    between atoms: _206  and  _208
REMARK   86  A    between atoms: _208  and  _209
REMARK   87  A    between atoms: _208  and  _211
REMARK   88  A    between atoms: _211  and  _212
REMARK   89  A    between atoms: _215  and  _217
REMARK   90  A    between atoms: _217  and  _218
REMARK   91  A    between atoms: _217  and  _220
REMARK   92  A    between atoms: _222  and  _224
REMARK   93  A    between atoms: _224  and  _225
REMARK   94  A    between atoms: _224  and  _227
REMARK   95  A    between atoms: _227  and  _228
REMARK   96  A    between atoms: _228  and  _229
REMARK   97  A    between atoms: _229  and  _230
REMARK   98  A    between atoms: _239  and  _241
REMARK   99  A    between atoms: _241  and  _242
REMARK  100  A    between atoms: _241  and  _244
REMARK  101  A    between atoms: _244  and  _245
REMARK  102  A    between atoms: _245  and  _246
REMARK  103  A    between atoms: _246  and  _247
REMARK  104  A    between atoms: _247  and  _248
REMARK  105  A    between atoms: _252  and  _254
REMARK  106  A    between atoms: _254  and  _255
REMARK  107  A    between atoms: _254  and  _257
REMARK  108  A    between atoms: _257  and  _258
REMARK  109  A    between atoms: _261  and  _263
REMARK  110  A    between atoms: _263  and  _264
REMARK  111  A    between atoms: _263  and  _266
REMARK  112  A    between atoms: _266  and  _267
REMARK  113  A    between atoms: _270  and  _272
REMARK  114  A    between atoms: _272  and  _273
REMARK  115  A    between atoms: _272  and  _275
REMARK  116  A    between atoms: _278  and  _280
REMARK  117  A    between atoms: _280  and  _281
REMARK  118  A    between atoms: _284  and  _286
REMARK  119  A    between atoms: _286  and  _287
REMARK  120  A    between atoms: _286  and  _289
REMARK  121  A    between atoms: _292  and  _294
REMARK  122  A    between atoms: _294  and  _295
REMARK  123  A    between atoms: _294  and  _297
REMARK  124  A    between atoms: _297  and  _298
REMARK  125  A    between atoms: _303  and  _305
REMARK  126  A    between atoms: _305  and  _306
REMARK  127  A    between atoms: _305  and  _308
REMARK  128  A    between atoms: _308  and  _309
REMARK  129  A    between atoms: _315  and  _317
REMARK  130  A    between atoms: _317  and  _318
REMARK  131  A    between atoms: _317  and  _320
REMARK  132  A    between atoms: _320  and  _321
REMARK  133  A    between atoms: _324  and  _326
REMARK  134  A    between atoms: _326  and  _327
REMARK  135  A    between atoms: _330  and  _332
REMARK  136  A    between atoms: _332  and  _333
REMARK  137  A    between atoms: _332  and  _335
REMARK  138  A    between atoms: _335  and  _336
REMARK  139  A    between atoms: _338  and  _340
REMARK  140  A    between atoms: _340  and  _341
REMARK  141  A    between atoms: _340  and  _343
REMARK                            x       y       z     vdW  Elec       q    Type
REMARK                         _______ _______ _______ _____ _____    ______ ____
ROOT
ATOM      1  CA  ALA A   1      33.388  12.269  14.982  0.00  0.00    +0.133 C 
ATOM      2  CB  ALA A   1      33.681  11.950  16.449  0.00  0.00    +0.027 C 
ENDROOT
BRANCH   1   3
ATOM      3  N   ALA A   1      33.175  13.700  14.809  0.00  0.00    -0.239 NA
ATOM      4  H   ALA A   1      33.188  14.327  15.639  0.00  0.00    +0.142 HD
ENDBRANCH   1   3
BRANCH   1   5
ATOM      5  C   ALA A   1      32.133  11.537  14.522  0.00  0.00    +0.224 C 
ATOM      6  O   ALA A   1      32.214  10.484  13.902  0.00  0.00    -0.287 OA
ENDBRANCH   1   5
TORSDOF 2
REMARK  Name = ../refined-set-2016/1w4o/1w4o_pocket.pdb
REMARK  141 active torsions:
REMARK  status: ('A' for Active; 'I' for Inactive)
REMARK    1  A    between atoms: _1  and  _3
REMARK    2  A    between atoms: _3  and  _4
REMARK    3  A    between atoms: _7  and  _9
REMARK    4  A    between atoms: _9  and  _10
REMARK    5  A    between atoms: _9  and  _12
REMARK    6  A    between atoms: _12  and  _13
REMARK    7  A    between atoms: _13  and  _14
REMARK    8  A    between atoms: _14  and  _15
REMARK    9  A    between atoms: _15  and  _16
REMARK   10  A    between atoms: _20  and  _22
REMARK   11  A    between atoms: _22  and  _23
REMARK   12  A    between atoms: _22  and  _25
REMARK   13  A    between atoms: _25  and  _26
REMARK   14  A    between atoms: _32  and  _34
REMARK   15  A    between atoms: _34  and  _35
REMARK   16  A    between atoms: _34  and  _37
REMARK   17  A    between atoms: _37  and  _38
REMARK   18  A    between atoms: _38  and  _39
REMARK   19  A    between atoms: _39  and  _40
REMARK   20  A    between atoms: _49  and  _51
REMARK   21  A    between atoms: _51  and  _52
REMARK   22  A    between atoms: _51  and  _54
REMARK   23  A    between atoms: _54  and  _55
REMARK   24  A    between atoms: _55  and  _56
REMARK   25  A    between atoms: _61  and  _63
REMARK   26  A    between atoms: _63  and  _64
REMARK   27  A    between atoms: _63  and  _66
REMARK   28  A    between atoms: _66  and  _67
REMARK   29  A    between atoms: _72  and  _74
REMARK   30  A    between atoms: _74  and  _75
REMARK   31  A    between atoms: _74  and  _77
REMARK   32  A    between atoms: _77  and  _78
REMARK   33  A    between atoms: _78  and  _79
REMARK   34  A    between atoms: _81  and  _83
REMARK   35  A    between atoms: _83  and  _84
REMARK   36  A    between atoms: _83  and  _86
REMARK   37  A    between atoms: _86  and  _87
REMARK   38  A    between atoms: _90  and  _92
REMARK   39  A    between atoms: _92  and  _93
REMARK   40  A    between atoms: _92  and  _95
REMARK   41  A    between atoms: _95  and  _96
REMARK   42  A    between atoms: _96  and  _97
REMARK   43  A    between atoms: _97  and  _98
REMARK   44  A    between atoms: _107  and  _109
REMARK   45  A    between atoms: _109  and  _110
REMARK   46  A    between atoms: _109  and  _112
REMARK   47  A    between atoms: _112  and  _113
REMARK   48  A    between atoms: _113  and  _114
REMARK   49  A    between atoms: _114  and  _115
REMARK   50  A    between atoms: _115  and  _116
REMARK   51  A    between atoms: _121  and  _122
REMARK   52  A    between atoms: _127  and  _129
REMARK   53  A    between atoms: _129  and  _130
REMARK   54  A    between atoms: _129  and  _132
REMARK   55  A    between atoms: _135  and  _137
REMARK   56  A    between atoms: _137  and  _138
REMARK   57  A    between atoms: _137  and  _140
REMARK   58  A    between atoms: _140  and  _141
REMARK   59  A    between atoms: _146  and  _148
REMARK   60  A    between atoms: _148  and  _149
REMARK   61  A    between atoms: _148  and  _151
REMARK   62  A    between atoms: _151  and  _152
REMARK   63  A    between atoms: _155  and  _157
REMARK   64  A    between atoms: _157  and  _158
REMARK   65  A    between atoms: _157  and  _160
REMARK   66  A    between atoms: _160  and  _161
REMARK   67  A    between atoms: _167  and  _169
REMARK   68  A    between atoms: _169  and  _170
REMARK   69  A    between atoms: _169  and  _172
REMARK   70  A    between atoms: _175  and  _177
REMARK   71  A    between atoms: _177  and  _178
REMARK   72  A    between atoms: _177  and  _180
REMARK   73  A    between atoms: _180  and  _181
REMARK   74  A    between atoms: _181  and  _182
REMARK   75  A    between atoms: _182  and  _183
REMARK   76  A    between atoms: _183  and  _184
REMARK   77  A    between atoms: _188  and  _190
REMARK   78  A    between atoms: _190  and  _191
REMARK   79  A    between atoms: _190  and  _193
REMARK   80  A    between atoms: _193  and  _194
REMARK   81  A    between atoms: _197  and  _199
REMARK   82  A    between atoms: _199  and  _200
REMARK   83  A    between atoms: _199  and  _202
REMARK   84  A    between atoms: _202  and  _203
REMARK   85  A    between atoms: _206  and  _208
REMARK   86  A    between atoms: _208  and  _209
REMARK   87  A    between atoms: _208  and  _211
REMARK   88  A    between atoms: _211  and  _212
REMARK   89  A    between atoms: _215  and  _217
REMARK   90  A    between atoms: _217  and  _218
REMARK   91  A    between atoms: _217  and  _220
REMARK   92  A    between atoms: _222  and  _224
REMARK   93  A    between atoms: _224  and  _225
REMARK   94  A    between atoms: _224  and  _227
REMARK   95  A    between atoms: _227  and  _228
REMARK   96  A    between atoms: _228  and  _229
REMARK   97  A    between atoms: _229  and  _230
REMARK   98  A    between atoms: _239  and  _241
REMARK   99  A    between atoms: _241  and  _242
REMARK  100  A    between atoms: _241  and  _244
REMARK  101  A    between atoms: _244  and  _245
REMARK  102  A    between atoms: _245  and  _246
REMARK  103  A    between atoms: _246  and  _247
REMARK  104  A    between atoms: _247  and  _248
REMARK  105  A    between atoms: _252  and  _254
REMARK  106  A    between atoms: _254  and  _255
REMARK  107  A    between atoms: _254  and  _257
REMARK  108  A    between atoms: _257  and  _258
REMARK  109  A    between atoms: _261  and  _263
REMARK  110  A    between atoms: _263  and  _264
REMARK  111  A    between atoms: _263  and  _266
REMARK  112  A    between atoms: _266  and  _267
REMARK  113  A    between atoms: _270  and  _272
REMARK  114  A    between atoms: _272  and  _273
REMARK  115  A    between atoms: _272  and  _275
REMARK  116  A    between atoms: _278  and  _280
REMARK  117  A    between atoms: _280  and  _281
REMARK  118  A    between atoms: _284  and  _286
REMARK  119  A    between atoms: _286  and  _287
REMARK  120  A    between atoms: _286  and  _289
REMARK  121  A    between atoms: _292  and  _294
REMARK  122  A    between atoms: _294  and  _295
REMARK  123  A    between atoms: _294  and  _297
REMARK  124  A    between atoms: _297  and  _298
REMARK  125  A    between atoms: _303  and  _305
REMARK  126  A    between atoms: _305  and  _306
REMARK  127  A    between atoms: _305  and  _308
REMARK  128  A    between atoms: _308  and  _309
REMARK  129  A    between atoms: _315  and  _317
REMARK  130  A    between atoms: _317  and  _318
REMARK  131  A    between atoms: _317  and  _320
REMARK  132  A    between atoms: _320  and  _321
REMARK  133  A    between atoms: _324  and  _326
REMARK  134  A    between atoms: _326  and  _327
REMARK  135  A    between atoms: _330  and  _332
REMARK  136  A    between atoms: _332  and  _333
REMARK  137  A    between atoms: _332  and  _335
REMARK  138  A    between atoms: _335  and  _336
REMARK  139  A    between atoms: _338  and  _340
REMARK  140  A    between atoms: _340  and  _341
REMARK  141  A    between atoms: _340  and  _343
REMARK                            x       y       z     vdW  Elec       q    Type
REMARK                         _______ _______ _______ _____ _____    ______ ____
ROOT
ATOM      1  C   LYS A   1      32.367   9.083  10.331  0.00  0.00    +0.238 C 
ATOM      2  N   PHE A   2      31.703   8.779  11.444  0.00  0.00    -0.298 N 
ATOM      3  H   PHE A   2      31.623   9.481  12.207  0.00  0.00    +0.150 HD
ATOM      4  O   LYS A   1      32.500   8.286   9.408  0.00  0.00    -0.274 OA
ENDROOT
BRANCH   1   5
ATOM      5  CA  LYS A   1      32.958  10.484  10.233  0.00  0.00    +0.145 C 
BRANCH   5   6
ATOM      6  N   LYS A   1      32.008  11.452  10.751  0.00  0.00    -0.238 NA
ATOM      7  H   LYS A   1      32.258  12.021  11.585  0.00  0.00    +0.142 HD
ENDBRANCH   5   6
BRANCH   5   8
ATOM      8  CB  LYS A   1      34.278  10.568  10.998  0.00  0.00    +0.026 C 
BRANCH   8   9
ATOM      9  CG  LYS A   1      35.328   9.596  10.497  0.00  0.00    -0.000 C 
BRANCH   9  10
ATOM     10  CD  LYS A   1      36.659   9.818  11.183  0.00  0.00    -0.024 C 
BRANCH  10  11
ATOM     11  CE  LYS A   1      37.688   8.808  10.709  0.00  0.00    -0.086 C 
BRANCH  11  12
ATOM     12  NZ  LYS A   1      39.008   9.007  11.374  0.00  0.00    +0.380 N 
ATOM     13  HZ1 LYS A   1      38.896   8.901  12.403  0.00  0.00    -0.089 HD
ATOM     14  HZ2 LYS A   1      39.363   9.961  11.159  0.00  0.00    -0.089 HD
ATOM     15  HZ3 LYS A   1      39.682   8.297  11.023  0.00  0.00    -0.089 HD
ENDBRANCH  11  12
ENDBRANCH  10  11
ENDBRANCH   9  10
ENDBRANCH   8   9
ENDBRANCH   5   8
ENDBRANCH   1   5
BRANCH   2  16
ATOM     16  CA  PHE A   2      31.086   7.463  11.598  0.00  0.00    +0.141 C 
BRANCH  16  17
ATOM     17  C   PHE A   2      30.077   7.235  10.474  0.00  0.00    +0.227 C 
ATOM     18  O   PHE A   2      30.027   6.159   9.888  0.00  0.00    -0.286 OA
ENDBRANCH  16  17
BRANCH  16  19
ATOM     19  CB  PHE A   2      30.395   7.345  12.970  0.00  0.00    +0.054 C 
BRANCH  19  20
ATOM     20  CG  PHE A   2      29.611   6.078  13.145  0.00  0.00    -0.020 A 
ATOM     21  CD2 PHE A   2      30.205   4.953  13.719  0.00  0.00    -0.004 A 
ATOM     22  CE2 PHE A   2      29.504   3.751  13.835  0.00  0.00    -0.000 A 
ATOM     23  CZ  PHE A   2      28.191   3.669  13.375  0.00  0.00    -0.000 A 
ATOM     24  CE1 PHE A   2      27.584   4.791  12.802  0.00  0.00    -0.000 A 
ATOM     25  CD1 PHE A   2      28.298   5.986  12.692  0.00  0.00    -0.004 A 
ENDBRANCH  19  20
ENDBRANCH  16  19
ENDBRANCH   2  16
TORSDOF 11
REMARK  Name = ../refined-set-2016/1w4o/1w4o_pocket.pdb
REMARK  141 active torsions:
REMARK  status: ('A' for Active; 'I' for Inactive)
REMARK    1  A    between atoms: _1  and  _3
REMARK    2  A    between atoms: _3  and  _4
REMARK    3  A    between atoms: _7  and  _9
REMARK    4  A    between atoms: _9  and  _10
REMARK    5  A    between atoms: _9  and  _12
REMARK    6  A    between atoms: _12  and  _13
REMARK    7  A    between atoms: _13  and  _14
REMARK    8  A    between atoms: _14  and  _15
REMARK    9  A    between atoms: _15  and  _16
REMARK   10  A    between atoms: _20  and  _22
REMARK   11  A    between atoms: _22  and  _23
REMARK   12  A    between atoms: _22  and  _25
REMARK   13  A    between atoms: _25  and  _26
REMARK   14  A    between atoms: _32  and  _34
REMARK   15  A    between atoms: _34  and  _35
REMARK   16  A    between atoms: _34  and  _37
REMARK   17  A    between atoms: _37  and  _38
REMARK   18  A    between atoms: _38  and  _39
REMARK   19  A    between atoms: _39  and  _40
REMARK   20  A    between atoms: _49  and  _51
REMARK   21  A    between atoms: _51  and  _52
REMARK   22  A    between atoms: _51  and  _54
REMARK   23  A    between atoms: _54  and  _55
REMARK   24  A    between atoms: _55  and  _56
REMARK   25  A    between atoms: _61  and  _63
REMARK   26  A    between atoms: _63  and  _64
REMARK   27  A    between atoms: _63  and  _66
REMARK   28  A    between atoms: _66  and  _67
REMARK   29  A    between atoms: _72  and  _74
REMARK   30  A    between atoms: _74  and  _75
REMARK   31  A    between atoms: _74  and  _77
REMARK   32  A    between atoms: _77  and  _78
REMARK   33  A    between atoms: _78  and  _79
REMARK   34  A    between atoms: _81  and  _83
REMARK   35  A    between atoms: _83  and  _84
REMARK   36  A    between atoms: _83  and  _86
REMARK   37  A    between atoms: _86  and  _87
REMARK   38  A    between atoms: _90  and  _92
REMARK   39  A    between atoms: _92  and  _93
REMARK   40  A    between atoms: _92  and  _95
REMARK   41  A    between atoms: _95  and  _96
REMARK   42  A    between atoms: _96  and  _97
REMARK   43  A    between atoms: _97  and  _98
REMARK   44  A    between atoms: _107  and  _109
REMARK   45  A    between atoms: _109  and  _110
REMARK   46  A    between atoms: _109  and  _112
REMARK   47  A    between atoms: _112  and  _113
REMARK   48  A    between atoms: _113  and  _114
REMARK   49  A    between atoms: _114  and  _115
REMARK   50  A    between atoms: _115  and  _116
REMARK   51  A    between atoms: _121  and  _122
REMARK   52  A    between atoms: _127  and  _129
REMARK   53  A    between atoms: _129  and  _130
REMARK   54  A    between atoms: _129  and  _132
REMARK   55  A    between atoms: _135  and  _137
REMARK   56  A    between atoms: _137  and  _138
REMARK   57  A    between atoms: _137  and  _140
REMARK   58  A    between atoms: _140  and  _141
REMARK   59  A    between atoms: _146  and  _148
REMARK   60  A    between atoms: _148  and  _149
REMARK   61  A    between atoms: _148  and  _151
REMARK   62  A    between atoms: _151  and  _152
REMARK   63  A    between atoms: _155  and  _157
REMARK   64  A    between atoms: _157  and  _158
REMARK   65  A    between atoms: _157  and  _160
REMARK   66  A    between atoms: _160  and  _161
REMARK   67  A    between atoms: _167  and  _169
REMARK   68  A    between atoms: _169  and  _170
REMARK   69  A    between atoms: _169  and  _172
REMARK   70  A    between atoms: _175  and  _177
REMARK   71  A    between atoms: _177  and  _178
REMARK   72  A    between atoms: _177  and  _180
REMARK   73  A    between atoms: _180  and  _181
REMARK   74  A    between atoms: _181  and  _182
REMARK   75  A    between atoms: _182  and  _183
REMARK   76  A    between atoms: _183  and  _184
REMARK   77  A    between atoms: _188  and  _190
REMARK   78  A    between atoms: _190  and  _191
REMARK   79  A    between atoms: _190  and  _193
REMARK   80  A    between atoms: _193  and  _194
REMARK   81  A    between atoms: _197  and  _199
REMARK   82  A    between atoms: _199  and  _200
REMARK   83  A    between atoms: _199  and  _202
REMARK   84  A    between atoms: _202  and  _203
REMARK   85  A    between atoms: _206  and  _208
REMARK   86  A    between atoms: _208  and  _209
REMARK   87  A    between atoms: _208  and  _211
REMARK   88  A    between atoms: _211  and  _212
REMARK   89  A    between atoms: _215  and  _217
REMARK   90  A    between atoms: _217  and  _218
REMARK   91  A    between atoms: _217  and  _220
REMARK   92  A    between atoms: _222  and  _224
REMARK   93  A    between atoms: _224  and  _225
REMARK   94  A    between atoms: _224  and  _227
REMARK   95  A    between atoms: _227  and  _228
REMARK   96  A    between atoms: _228  and  _229
REMARK   97  A    between atoms: _229  and  _230
REMARK   98  A    between atoms: _239  and  _241
REMARK   99  A    between atoms: _241  and  _242
REMARK  100  A    between atoms: _241  and  _244
REMARK  101  A    between atoms: _244  and  _245
REMARK  102  A    between atoms: _245  and  _246
REMARK  103  A    between atoms: _246  and  _247
REMARK  104  A    between atoms: _247  and  _248
REMARK  105  A    between atoms: _252  and  _254
REMARK  106  A    between atoms: _254  and  _255
REMARK  107  A    between atoms: _254  and  _257
REMARK  108  A    between atoms: _257  and  _258
REMARK  109  A    between atoms: _261  and  _263
REMARK  110  A    between atoms: _263  and  _264
REMARK  111  A    between atoms: _263  and  _266
REMARK  112  A    between atoms: _266  and  _267
REMARK  113  A    between atoms: _270  and  _272
REMARK  114  A    between atoms: _272  and  _273
REMARK  115  A    between atoms: _272  and  _275
REMARK  116  A    between atoms: _278  and  _280
REMARK  117  A    between atoms: _280  and  _281
REMARK  118  A    between atoms: _284  and  _286
REMARK  119  A    between atoms: _286  and  _287
REMARK  120  A    between atoms: _286  and  _289
REMARK  121  A    between atoms: _292  and  _294
REMARK  122  A    between atoms: _294  and  _295
REMARK  123  A    between atoms: _294  and  _297
REMARK  124  A    between atoms: _297  and  _298
REMARK  125  A    between atoms: _303  and  _305
REMARK  126  A    between atoms: _305  and  _306
REMARK  127  A    between atoms: _305  and  _308
REMARK  128  A    between atoms: _308  and  _309
REMARK  129  A    between atoms: _315  and  _317
REMARK  130  A    between atoms: _317  and  _318
REMARK  131  A    between atoms: _317  and  _320
REMARK  132  A    between atoms: _320  and  _321
REMARK  133  A    between atoms: _324  and  _326
REMARK  134  A    between atoms: _326  and  _327
REMARK  135  A    between atoms: _330  and  _332
REMARK  136  A    between atoms: _332  and  _333
REMARK  137  A    between atoms: _332  and  _335
REMARK  138  A    between atoms: _335  and  _336
REMARK  139  A    between atoms: _338  and  _340
REMARK  140  A    between atoms: _340  and  _341
REMARK  141  A    between atoms: _340  and  _343
REMARK                            x       y       z     vdW  Elec       q    Type
REMARK                         _______ _______ _______ _____ _____    ______ ____
ROOT
ATOM      1  CA  GLN A   2      32.727   5.413   7.185  0.00  0.00    +0.149 C 
ENDROOT
BRANCH   1   3
ATOM      2  C   ARG A   1      31.484   7.189   6.101  0.00  0.00    +0.238 C 
ATOM      3  N   GLN A   2      32.020   6.686   7.204  0.00  0.00    -0.297 N 
ATOM      4  H   GLN A   2      31.934   7.210   8.099  0.00  0.00    +0.150 HD
ATOM      5  O   ARG A   1      31.548   6.623   5.014  0.00  0.00    -0.274 OA
BRANCH   2   6
ATOM      6  CA  ARG A   1      30.786   8.534   6.244  0.00  0.00    +0.145 C 
BRANCH   6   7
ATOM      7  N   ARG A   1      30.046   8.648   7.503  0.00  0.00    -0.238 NA
ATOM      8  H   ARG A   1      30.362   9.336   8.216  0.00  0.00    +0.142 HD
ENDBRANCH   6   7
BRANCH   6   9
ATOM      9  CB  ARG A   1      31.828   9.651   6.137  0.00  0.00    +0.030 C 
BRANCH   9  10
ATOM     10  CG  ARG A   1      32.746   9.527   4.924  0.00  0.00    +0.045 C 
BRANCH  10  11
ATOM     11  CD  ARG A   1      33.642  10.753   4.757  0.00  0.00    +0.174 C 
BRANCH  11  12
ATOM     12  NE  ARG A   1      34.625  10.910   5.828  0.00  0.00    -0.265 N 
ATOM     13  HE  ARG A   1      34.433  11.622   6.561  0.00  0.00    +0.259 HD
ATOM     14  CZ  ARG A   1      35.748  10.205   5.929  0.00  0.00    +0.342 C 
ATOM     15  NH2 ARG A   1      36.583  10.431   6.935  0.00  0.00    -0.292 N 
ATOM     16 HH21 ARG A   1      36.359  11.159   7.643  0.00  0.00    +0.255 HD
ATOM     17 HH22 ARG A   1      37.462   9.880   7.015  0.00  0.00    +0.255 HD
ATOM     18  NH1 ARG A   1      36.043   9.283   5.024  0.00  0.00    -0.292 N 
ATOM     19 HH11 ARG A   1      36.923   8.735   5.108  0.00  0.00    +0.255 HD
ATOM     20 HH12 ARG A   1      35.395   9.108   4.230  0.00  0.00    +0.255 HD
ENDBRANCH  11  12
ENDBRANCH  10  11
ENDBRANCH   9  10
ENDBRANCH   6   9
ENDBRANCH   2   6
ENDBRANCH   1   3
BRANCH   1  21
ATOM     21  C   GLN A   2      31.868   4.168   7.340  0.00  0.00    +0.241 C 
ATOM     22  N   HIS A   3      30.746   4.284   8.045  0.00  0.00    -0.298 N 
ATOM     23  H   HIS A   3      30.436   5.215   8.388  0.00  0.00    +0.150 HD
ATOM     24  O   GLN A   2      32.211   3.113   6.812  0.00  0.00    -0.273 OA
BRANCH  22  25
ATOM     25  CA  HIS A   3      29.941   3.071   8.337  0.00  0.00    +0.143 C 
BRANCH  25  26
ATOM     26  C   HIS A   3      28.463   3.035   7.979  0.00  0.00    +0.227 C 
ATOM     27  O   HIS A   3      27.833   2.000   8.194  0.00  0.00    -0.286 OA
ENDBRANCH  25  26
BRANCH  25  28
ATOM     28  CB  HIS A   3      30.052   2.798   9.828  0.00  0.00    +0.075 C 
BRANCH  28  29
ATOM     29  CG  HIS A   3      31.502   2.681  10.277  0.00  0.00    +0.082 A 
ATOM     30  CD2 HIS A   3      32.222   3.409  11.162  0.00  0.00    +0.115 A 
ATOM     31  NE2 HIS A   3      33.474   2.853  11.220  0.00  0.00    -0.221 NA
ATOM     32  CE1 HIS A   3      33.526   1.822  10.396  0.00  0.00    +0.199 A 
ATOM     33  ND1 HIS A   3      32.348   1.698   9.810  0.00  0.00    -0.227 NA
ENDBRANCH  28  29
ENDBRANCH  25  28
ENDBRANCH  22  25
ENDBRANCH   1  21
BRANCH   1  34
ATOM     34  CB  GLN A   2      33.771   5.376   8.303  0.00  0.00    +0.039 C 
BRANCH  34  35
ATOM     35  CG  GLN A   2      34.991   6.221   8.087  0.00  0.00    +0.087 C 
BRANCH  35  36
ATOM     36  CD  GLN A   2      36.011   6.005   9.182  0.00  0.00    +0.219 C 
ATOM     37  NE2 GLN A   2      35.532   5.842  10.409  0.00  0.00    -0.329 N 
ATOM     38 HE21 GLN A   2      36.183   5.695  11.206  0.00  0.00    +0.145 HD
ATOM     39 HE22 GLN A   2      34.505   5.861  10.573  0.00  0.00    +0.145 HD
ATOM     40  OE1 GLN A   2      37.216   5.991   8.934  0.00  0.00    -0.275 OA
ENDBRANCH  35  36
ENDBRANCH  34  35
ENDBRANCH   1  34
TORSDOF 15
REMARK  Name = ../refined-set-2016/1w4o/1w4o_pocket.pdb
REMARK  141 active torsions:
REMARK  status: ('A' for Active; 'I' for Inactive)
REMARK    1  A    between atoms: _1  and  _3
REMARK    2  A    between atoms: _3  and  _4
REMARK    3  A    between atoms: _7  and  _9
REMARK    4  A    between atoms: _9  and  _10
REMARK    5  A    between atoms: _9  and  _12
REMARK    6  A    between atoms: _12  and  _13
REMARK    7  A    between atoms: _13  and  _14
REMARK    8  A    between atoms: _14  and  _15
REMARK    9  A    between atoms: _15  and  _16
REMARK   10  A    between atoms: _20  and  _22
REMARK   11  A    between atoms: _22  and  _23
REMARK   12  A    between atoms: _22  and  _25
REMARK   13  A    between atoms: _25  and  _26
REMARK   14  A    between atoms: _32  and  _34
REMARK   15  A    between atoms: _34  and  _35
REMARK   16  A    between atoms: _34  and  _37
REMARK   17  A    between atoms: _37  and  _38
REMARK   18  A    between atoms: _38  and  _39
REMARK   19  A    between atoms: _39  and  _40
REMARK   20  A    between atoms: _49  and  _51
REMARK   21  A    between atoms: _51  and  _52
REMARK   22  A    between atoms: _51  and  _54
REMARK   23  A    between atoms: _54  and  _55
REMARK   24  A    between atoms: _55  and  _56
REMARK   25  A    between atoms: _61  and  _63
REMARK   26  A    between atoms: _63  and  _64
REMARK   27  A    between atoms: _63  and  _66
REMARK   28  A    between atoms: _66  and  _67
REMARK   29  A    between atoms: _72  and  _74
REMARK   30  A    between atoms: _74  and  _75
REMARK   31  A    between atoms: _74  and  _77
REMARK   32  A    between atoms: _77  and  _78
REMARK   33  A    between atoms: _78  and  _79
REMARK   34  A    between atoms: _81  and  _83
REMARK   35  A    between atoms: _83  and  _84
REMARK   36  A    between atoms: _83  and  _86
REMARK   37  A    between atoms: _86  and  _87
REMARK   38  A    between atoms: _90  and  _92
REMARK   39  A    between atoms: _92  and  _93
REMARK   40  A    between atoms: _92  and  _95
REMARK   41  A    between atoms: _95  and  _96
REMARK   42  A    between atoms: _96  and  _97
REMARK   43  A    between atoms: _97  and  _98
REMARK   44  A    between atoms: _107  and  _109
REMARK   45  A    between atoms: _109  and  _110
REMARK   46  A    between atoms: _109  and  _112
REMARK   47  A    between atoms: _112  and  _113
REMARK   48  A    between atoms: _113  and  _114
REMARK   49  A    between atoms: _114  and  _115
REMARK   50  A    between atoms: _115  and  _116
REMARK   51  A    between atoms: _121  and  _122
REMARK   52  A    between atoms: _127  and  _129
REMARK   53  A    between atoms: _129  and  _130
REMARK   54  A    between atoms: _129  and  _132
REMARK   55  A    between atoms: _135  and  _137
REMARK   56  A    between atoms: _137  and  _138
REMARK   57  A    between atoms: _137  and  _140
REMARK   58  A    between atoms: _140  and  _141
REMARK   59  A    between atoms: _146  and  _148
REMARK   60  A    between atoms: _148  and  _149
REMARK   61  A    between atoms: _148  and  _151
REMARK   62  A    between atoms: _151  and  _152
REMARK   63  A    between atoms: _155  and  _157
REMARK   64  A    between atoms: _157  and  _158
REMARK   65  A    between atoms: _157  and  _160
REMARK   66  A    between atoms: _160  and  _161
REMARK   67  A    between atoms: _167  and  _169
REMARK   68  A    between atoms: _169  and  _170
REMARK   69  A    between atoms: _169  and  _172
REMARK   70  A    between atoms: _175  and  _177
REMARK   71  A    between atoms: _177  and  _178
REMARK   72  A    between atoms: _177  and  _180
REMARK   73  A    between atoms: _180  and  _181
REMARK   74  A    between atoms: _181  and  _182
REMARK   75  A    between atoms: _182  and  _183
REMARK   76  A    between atoms: _183  and  _184
REMARK   77  A    between atoms: _188  and  _190
REMARK   78  A    between atoms: _190  and  _191
REMARK   79  A    between atoms: _190  and  _193
REMARK   80  A    between atoms: _193  and  _194
REMARK   81  A    between atoms: _197  and  _199
REMARK   82  A    between atoms: _199  and  _200
REMARK   83  A    between atoms: _199  and  _202
REMARK   84  A    between atoms: _202  and  _203
REMARK   85  A    between atoms: _206  and  _208
REMARK   86  A    between atoms: _208  and  _209
REMARK   87  A    between atoms: _208  and  _211
REMARK   88  A    between atoms: _211  and  _212
REMARK   89  A    between atoms: _215  and  _217
REMARK   90  A    between atoms: _217  and  _218
REMARK   91  A    between atoms: _217  and  _220
REMARK   92  A    between atoms: _222  and  _224
REMARK   93  A    between atoms: _224  and  _225
REMARK   94  A    between atoms: _224  and  _227
REMARK   95  A    between atoms: _227  and  _228
REMARK   96  A    between atoms: _228  and  _229
REMARK   97  A    between atoms: _229  and  _230
REMARK   98  A    between atoms: _239  and  _241
REMARK   99  A    between atoms: _241  and  _242
REMARK  100  A    between atoms: _241  and  _244
REMARK  101  A    between atoms: _244  and  _245
REMARK  102  A    between atoms: _245  and  _246
REMARK  103  A    between atoms: _246  and  _247
REMARK  104  A    between atoms: _247  and  _248
REMARK  105  A    between atoms: _252  and  _254
REMARK  106  A    between atoms: _254  and  _255
REMARK  107  A    between atoms: _254  and  _257
REMARK  108  A    between atoms: _257  and  _258
REMARK  109  A    between atoms: _261  and  _263
REMARK  110  A    between atoms: _263  and  _264
REMARK  111  A    between atoms: _263  and  _266
REMARK  112  A    between atoms: _266  and  _267
REMARK  113  A    between atoms: _270  and  _272
REMARK  114  A    between atoms: _272  and  _273
REMARK  115  A    between atoms: _272  and  _275
REMARK  116  A    between atoms: _278  and  _280
REMARK  117  A    between atoms: _280  and  _281
REMARK  118  A    between atoms: _284  and  _286
REMARK  119  A    between atoms: _286  and  _287
REMARK  120  A    between atoms: _286  and  _289
REMARK  121  A    between atoms: _292  and  _294
REMARK  122  A    between atoms: _294  and  _295
REMARK  123  A    between atoms: _294  and  _297
REMARK  124  A    between atoms: _297  and  _298
REMARK  125  A    between atoms: _303  and  _305
REMARK  126  A    between atoms: _305  and  _306
REMARK  127  A    between atoms: _305  and  _308
REMARK  128  A    between atoms: _308  and  _309
REMARK  129  A    between atoms: _315  and  _317
REMARK  130  A    between atoms: _317  and  _318
REMARK  131  A    between atoms: _317  and  _320
REMARK  132  A    between atoms: _320  and  _321
REMARK  133  A    between atoms: _324  and  _326
REMARK  134  A    between atoms: _326  and  _327
REMARK  135  A    between atoms: _330  and  _332
REMARK  136  A    between atoms: _332  and  _333
REMARK  137  A    between atoms: _332  and  _335
REMARK  138  A    between atoms: _335  and  _336
REMARK  139  A    between atoms: _338  and  _340
REMARK  140  A    between atoms: _340  and  _341
REMARK  141  A    between atoms: _340  and  _343
REMARK                            x       y       z     vdW  Elec       q    Type
REMARK                         _______ _______ _______ _____ _____    ______ ____
ROOT
ATOM      1  CA  MET A   1      35.671   2.213   0.094  0.00  0.00    +0.134 C 
ENDROOT
BRANCH   1   2
ATOM      2  N   MET A   1      34.513   1.765  -0.670  0.00  0.00    -0.239 NA
ATOM      3  H   MET A   1      34.506   0.811  -1.083  0.00  0.00    +0.142 HD
ENDBRANCH   1   2
BRANCH   1   4
ATOM      4  C   MET A   1      36.318   3.435  -0.553  0.00  0.00    +0.224 C 
ATOM      5  O   MET A   1      36.727   4.368   0.136  0.00  0.00    -0.287 OA
ENDBRANCH   1   4
BRANCH   1   6
ATOM      6  CB  MET A   1      36.699   1.087   0.224  0.00  0.00    +0.037 C 
BRANCH   6   7
ATOM      7  CG  MET A   1      36.253  -0.066   1.109  0.00  0.00    +0.059 C 
BRANCH   7   8
ATOM      8  SD  MET A   1      36.069   0.423   2.846  0.00  0.00    -0.139 S 
ATOM      9  CE  MET A   1      37.764   0.352   3.398  0.00  0.00    +0.069 C 
ENDBRANCH   7   8
ENDBRANCH   6   7
ENDBRANCH   1   6
TORSDOF 5
REMARK  Name = ../refined-set-2016/1w4o/1w4o_pocket.pdb
REMARK  141 active torsions:
REMARK  status: ('A' for Active; 'I' for Inactive)
REMARK    1  A    between atoms: _1  and  _3
REMARK    2  A    between atoms: _3  and  _4
REMARK    3  A    between atoms: _7  and  _9
REMARK    4  A    between atoms: _9  and  _10
REMARK    5  A    between atoms: _9  and  _12
REMARK    6  A    between atoms: _12  and  _13
REMARK    7  A    between atoms: _13  and  _14
REMARK    8  A    between atoms: _14  and  _15
REMARK    9  A    between atoms: _15  and  _16
REMARK   10  A    between atoms: _20  and  _22
REMARK   11  A    between atoms: _22  and  _23
REMARK   12  A    between atoms: _22  and  _25
REMARK   13  A    between atoms: _25  and  _26
REMARK   14  A    between atoms: _32  and  _34
REMARK   15  A    between atoms: _34  and  _35
REMARK   16  A    between atoms: _34  and  _37
REMARK   17  A    between atoms: _37  and  _38
REMARK   18  A    between atoms: _38  and  _39
REMARK   19  A    between atoms: _39  and  _40
REMARK   20  A    between atoms: _49  and  _51
REMARK   21  A    between atoms: _51  and  _52
REMARK   22  A    between atoms: _51  and  _54
REMARK   23  A    between atoms: _54  and  _55
REMARK   24  A    between atoms: _55  and  _56
REMARK   25  A    between atoms: _61  and  _63
REMARK   26  A    between atoms: _63  and  _64
REMARK   27  A    between atoms: _63  and  _66
REMARK   28  A    between atoms: _66  and  _67
REMARK   29  A    between atoms: _72  and  _74
REMARK   30  A    between atoms: _74  and  _75
REMARK   31  A    between atoms: _74  and  _77
REMARK   32  A    between atoms: _77  and  _78
REMARK   33  A    between atoms: _78  and  _79
REMARK   34  A    between atoms: _81  and  _83
REMARK   35  A    between atoms: _83  and  _84
REMARK   36  A    between atoms: _83  and  _86
REMARK   37  A    between atoms: _86  and  _87
REMARK   38  A    between atoms: _90  and  _92
REMARK   39  A    between atoms: _92  and  _93
REMARK   40  A    between atoms: _92  and  _95
REMARK   41  A    between atoms: _95  and  _96
REMARK   42  A    between atoms: _96  and  _97
REMARK   43  A    between atoms: _97  and  _98
REMARK   44  A    between atoms: _107  and  _109
REMARK   45  A    between atoms: _109  and  _110
REMARK   46  A    between atoms: _109  and  _112
REMARK   47  A    between atoms: _112  and  _113
REMARK   48  A    between atoms: _113  and  _114
REMARK   49  A    between atoms: _114  and  _115
REMARK   50  A    between atoms: _115  and  _116
REMARK   51  A    between atoms: _121  and  _122
REMARK   52  A    between atoms: _127  and  _129
REMARK   53  A    between atoms: _129  and  _130
REMARK   54  A    between atoms: _129  and  _132
REMARK   55  A    between atoms: _135  and  _137
REMARK   56  A    between atoms: _137  and  _138
REMARK   57  A    between atoms: _137  and  _140
REMARK   58  A    between atoms: _140  and  _141
REMARK   59  A    between atoms: _146  and  _148
REMARK   60  A    between atoms: _148  and  _149
REMARK   61  A    between atoms: _148  and  _151
REMARK   62  A    between atoms: _151  and  _152
REMARK   63  A    between atoms: _155  and  _157
REMARK   64  A    between atoms: _157  and  _158
REMARK   65  A    between atoms: _157  and  _160
REMARK   66  A    between atoms: _160  and  _161
REMARK   67  A    between atoms: _167  and  _169
REMARK   68  A    between atoms: _169  and  _170
REMARK   69  A    between atoms: _169  and  _172
REMARK   70  A    between atoms: _175  and  _177
REMARK   71  A    between atoms: _177  and  _178
REMARK   72  A    between atoms: _177  and  _180
REMARK   73  A    between atoms: _180  and  _181
REMARK   74  A    between atoms: _181  and  _182
REMARK   75  A    between atoms: _182  and  _183
REMARK   76  A    between atoms: _183  and  _184
REMARK   77  A    between atoms: _188  and  _190
REMARK   78  A    between atoms: _190  and  _191
REMARK   79  A    between atoms: _190  and  _193
REMARK   80  A    between atoms: _193  and  _194
REMARK   81  A    between atoms: _197  and  _199
REMARK   82  A    between atoms: _199  and  _200
REMARK   83  A    between atoms: _199  and  _202
REMARK   84  A    between atoms: _202  and  _203
REMARK   85  A    between atoms: _206  and  _208
REMARK   86  A    between atoms: _208  and  _209
REMARK   87  A    between atoms: _208  and  _211
REMARK   88  A    between atoms: _211  and  _212
REMARK   89  A    between atoms: _215  and  _217
REMARK   90  A    between atoms: _217  and  _218
REMARK   91  A    between atoms: _217  and  _220
REMARK   92  A    between atoms: _222  and  _224
REMARK   93  A    between atoms: _224  and  _225
REMARK   94  A    between atoms: _224  and  _227
REMARK   95  A    between atoms: _227  and  _228
REMARK   96  A    between atoms: _228  and  _229
REMARK   97  A    between atoms: _229  and  _230
REMARK   98  A    between atoms: _239  and  _241
REMARK   99  A    between atoms: _241  and  _242
REMARK  100  A    between atoms: _241  and  _244
REMARK  101  A    between atoms: _244  and  _245
REMARK  102  A    between atoms: _245  and  _246
REMARK  103  A    between atoms: _246  and  _247
REMARK  104  A    between atoms: _247  and  _248
REMARK  105  A    between atoms: _252  and  _254
REMARK  106  A    between atoms: _254  and  _255
REMARK  107  A    between atoms: _254  and  _257
REMARK  108  A    between atoms: _257  and  _258
REMARK  109  A    between atoms: _261  and  _263
REMARK  110  A    between atoms: _263  and  _264
REMARK  111  A    between atoms: _263  and  _266
REMARK  112  A    between atoms: _266  and  _267
REMARK  113  A    between atoms: _270  and  _272
REMARK  114  A    between atoms: _272  and  _273
REMARK  115  A    between atoms: _272  and  _275
REMARK  116  A    between atoms: _278  and  _280
REMARK  117  A    between atoms: _280  and  _281
REMARK  118  A    between atoms: _284  and  _286
REMARK  119  A    between atoms: _286  and  _287
REMARK  120  A    between atoms: _286  and  _289
REMARK  121  A    between atoms: _292  and  _294
REMARK  122  A    between atoms: _294  and  _295
REMARK  123  A    between atoms: _294  and  _297
REMARK  124  A    between atoms: _297  and  _298
REMARK  125  A    between atoms: _303  and  _305
REMARK  126  A    between atoms: _305  and  _306
REMARK  127  A    between atoms: _305  and  _308
REMARK  128  A    between atoms: _308  and  _309
REMARK  129  A    between atoms: _315  and  _317
REMARK  130  A    between atoms: _317  and  _318
REMARK  131  A    between atoms: _317  and  _320
REMARK  132  A    between atoms: _320  and  _321
REMARK  133  A    between atoms: _324  and  _326
REMARK  134  A    between atoms: _326  and  _327
REMARK  135  A    between atoms: _330  and  _332
REMARK  136  A    between atoms: _332  and  _333
REMARK  137  A    between atoms: _332  and  _335
REMARK  138  A    between atoms: _335  and  _336
REMARK  139  A    between atoms: _338  and  _340
REMARK  140  A    between atoms: _340  and  _341
REMARK  141  A    between atoms: _340  and  _343
REMARK                            x       y       z     vdW  Elec       q    Type
REMARK                         _______ _______ _______ _____ _____    ______ ____
ROOT
ATOM      1  CA  LEU A   1      38.736   5.413   2.783  0.00  0.00    +0.133 C 
ENDROOT
BRANCH   1   2
ATOM      2  N   LEU A   1      38.063   6.261   1.806  0.00  0.00    -0.239 NA
ATOM      3  H   LEU A   1      37.443   5.824   1.094  0.00  0.00    +0.142 HD
ENDBRANCH   1   2
BRANCH   1   4
ATOM      4  C   LEU A   1      40.005   4.788   2.213  0.00  0.00    +0.224 C 
ATOM      5  O   LEU A   1      40.619   3.931   2.845  0.00  0.00    -0.287 OA
ENDBRANCH   1   4
BRANCH   1   6
ATOM      6  CB  LEU A   1      37.792   4.307   3.263  0.00  0.00    +0.025 C 
BRANCH   6   7
ATOM      7  CG  LEU A   1      36.494   4.775   3.919  0.00  0.00    +0.002 C 
ATOM      8  CD2 LEU A   1      36.815   5.770   5.023  0.00  0.00    +0.000 C 
ATOM      9  CD1 LEU A   1      35.745   3.574   4.479  0.00  0.00    +0.000 C 
ENDBRANCH   6   7
ENDBRANCH   1   6
TORSDOF 4
REMARK  Name = ../refined-set-2016/1w4o/1w4o_pocket.pdb
REMARK  141 active torsions:
REMARK  status: ('A' for Active; 'I' for Inactive)
REMARK    1  A    between atoms: _1  and  _3
REMARK    2  A    between atoms: _3  and  _4
REMARK    3  A    between atoms: _7  and  _9
REMARK    4  A    between atoms: _9  and  _10
REMARK    5  A    between atoms: _9  and  _12
REMARK    6  A    between atoms: _12  and  _13
REMARK    7  A    between atoms: _13  and  _14
REMARK    8  A    between atoms: _14  and  _15
REMARK    9  A    between atoms: _15  and  _16
REMARK   10  A    between atoms: _20  and  _22
REMARK   11  A    between atoms: _22  and  _23
REMARK   12  A    between atoms: _22  and  _25
REMARK   13  A    between atoms: _25  and  _26
REMARK   14  A    between atoms: _32  and  _34
REMARK   15  A    between atoms: _34  and  _35
REMARK   16  A    between atoms: _34  and  _37
REMARK   17  A    between atoms: _37  and  _38
REMARK   18  A    between atoms: _38  and  _39
REMARK   19  A    between atoms: _39  and  _40
REMARK   20  A    between atoms: _49  and  _51
REMARK   21  A    between atoms: _51  and  _52
REMARK   22  A    between atoms: _51  and  _54
REMARK   23  A    between atoms: _54  and  _55
REMARK   24  A    between atoms: _55  and  _56
REMARK   25  A    between atoms: _61  and  _63
REMARK   26  A    between atoms: _63  and  _64
REMARK   27  A    between atoms: _63  and  _66
REMARK   28  A    between atoms: _66  and  _67
REMARK   29  A    between atoms: _72  and  _74
REMARK   30  A    between atoms: _74  and  _75
REMARK   31  A    between atoms: _74  and  _77
REMARK   32  A    between atoms: _77  and  _78
REMARK   33  A    between atoms: _78  and  _79
REMARK   34  A    between atoms: _81  and  _83
REMARK   35  A    between atoms: _83  and  _84
REMARK   36  A    between atoms: _83  and  _86
REMARK   37  A    between atoms: _86  and  _87
REMARK   38  A    between atoms: _90  and  _92
REMARK   39  A    between atoms: _92  and  _93
REMARK   40  A    between atoms: _92  and  _95
REMARK   41  A    between atoms: _95  and  _96
REMARK   42  A    between atoms: _96  and  _97
REMARK   43  A    between atoms: _97  and  _98
REMARK   44  A    between atoms: _107  and  _109
REMARK   45  A    between atoms: _109  and  _110
REMARK   46  A    between atoms: _109  and  _112
REMARK   47  A    between atoms: _112  and  _113
REMARK   48  A    between atoms: _113  and  _114
REMARK   49  A    between atoms: _114  and  _115
REMARK   50  A    between atoms: _115  and  _116
REMARK   51  A    between atoms: _121  and  _122
REMARK   52  A    between atoms: _127  and  _129
REMARK   53  A    between atoms: _129  and  _130
REMARK   54  A    between atoms: _129  and  _132
REMARK   55  A    between atoms: _135  and  _137
REMARK   56  A    between atoms: _137  and  _138
REMARK   57  A    between atoms: _137  and  _140
REMARK   58  A    between atoms: _140  and  _141
REMARK   59  A    between atoms: _146  and  _148
REMARK   60  A    between atoms: _148  and  _149
REMARK   61  A    between atoms: _148  and  _151
REMARK   62  A    between atoms: _151  and  _152
REMARK   63  A    between atoms: _155  and  _157
REMARK   64  A    between atoms: _157  and  _158
REMARK   65  A    between atoms: _157  and  _160
REMARK   66  A    between atoms: _160  and  _161
REMARK   67  A    between atoms: _167  and  _169
REMARK   68  A    between atoms: _169  and  _170
REMARK   69  A    between atoms: _169  and  _172
REMARK   70  A    between atoms: _175  and  _177
REMARK   71  A    between atoms: _177  and  _178
REMARK   72  A    between atoms: _177  and  _180
REMARK   73  A    between atoms: _180  and  _181
REMARK   74  A    between atoms: _181  and  _182
REMARK   75  A    between atoms: _182  and  _183
REMARK   76  A    between atoms: _183  and  _184
REMARK   77  A    between atoms: _188  and  _190
REMARK   78  A    between atoms: _190  and  _191
REMARK   79  A    between atoms: _190  and  _193
REMARK   80  A    between atoms: _193  and  _194
REMARK   81  A    between atoms: _197  and  _199
REMARK   82  A    between atoms: _199  and  _200
REMARK   83  A    between atoms: _199  and  _202
REMARK   84  A    between atoms: _202  and  _203
REMARK   85  A    between atoms: _206  and  _208
REMARK   86  A    between atoms: _208  and  _209
REMARK   87  A    between atoms: _208  and  _211
REMARK   88  A    between atoms: _211  and  _212
REMARK   89  A    between atoms: _215  and  _217
REMARK   90  A    between atoms: _217  and  _218
REMARK   91  A    between atoms: _217  and  _220
REMARK   92  A    between atoms: _222  and  _224
REMARK   93  A    between atoms: _224  and  _225
REMARK   94  A    between atoms: _224  and  _227
REMARK   95  A    between atoms: _227  and  _228
REMARK   96  A    between atoms: _228  and  _229
REMARK   97  A    between atoms: _229  and  _230
REMARK   98  A    between atoms: _239  and  _241
REMARK   99  A    between atoms: _241  and  _242
REMARK  100  A    between atoms: _241  and  _244
REMARK  101  A    between atoms: _244  and  _245
REMARK  102  A    between atoms: _245  and  _246
REMARK  103  A    between atoms: _246  and  _247
REMARK  104  A    between atoms: _247  and  _248
REMARK  105  A    between atoms: _252  and  _254
REMARK  106  A    between atoms: _254  and  _255
REMARK  107  A    between atoms: _254  and  _257
REMARK  108  A    between atoms: _257  and  _258
REMARK  109  A    between atoms: _261  and  _263
REMARK  110  A    between atoms: _263  and  _264
REMARK  111  A    between atoms: _263  and  _266
REMARK  112  A    between atoms: _266  and  _267
REMARK  113  A    between atoms: _270  and  _272
REMARK  114  A    between atoms: _272  and  _273
REMARK  115  A    between atoms: _272  and  _275
REMARK  116  A    between atoms: _278  and  _280
REMARK  117  A    between atoms: _280  and  _281
REMARK  118  A    between atoms: _284  and  _286
REMARK  119  A    between atoms: _286  and  _287
REMARK  120  A    between atoms: _286  and  _289
REMARK  121  A    between atoms: _292  and  _294
REMARK  122  A    between atoms: _294  and  _295
REMARK  123  A    between atoms: _294  and  _297
REMARK  124  A    between atoms: _297  and  _298
REMARK  125  A    between atoms: _303  and  _305
REMARK  126  A    between atoms: _305  and  _306
REMARK  127  A    between atoms: _305  and  _308
REMARK  128  A    between atoms: _308  and  _309
REMARK  129  A    between atoms: _315  and  _317
REMARK  130  A    between atoms: _317  and  _318
REMARK  131  A    between atoms: _317  and  _320
REMARK  132  A    between atoms: _320  and  _321
REMARK  133  A    between atoms: _324  and  _326
REMARK  134  A    between atoms: _326  and  _327
REMARK  135  A    between atoms: _330  and  _332
REMARK  136  A    between atoms: _332  and  _333
REMARK  137  A    between atoms: _332  and  _335
REMARK  138  A    between atoms: _335  and  _336
REMARK  139  A    between atoms: _338  and  _340
REMARK  140  A    between atoms: _340  and  _341
REMARK  141  A    between atoms: _340  and  _343
REMARK                            x       y       z     vdW  Elec       q    Type
REMARK                         _______ _______ _______ _____ _____    ______ ____
ROOT
ATOM      1  NE  ARG A   1      45.800   3.041   6.952  0.00  0.00    -0.265 N 
ATOM      2  CZ  ARG A   1      46.034   2.231   7.980  0.00  0.00    +0.342 C 
ATOM      3  NH2 ARG A   1      45.147   2.132   8.963  0.00  0.00    -0.292 N 
ATOM      4 HH21 ARG A   1      45.330   1.498   9.767  0.00  0.00    +0.255 HD
ATOM      5 HH22 ARG A   1      44.269   2.688   8.929  0.00  0.00    +0.255 HD
ATOM      6  NH1 ARG A   1      47.151   1.517   8.026  0.00  0.00    -0.292 N 
ATOM      7 HH11 ARG A   1      47.331   0.884   8.832  0.00  0.00    +0.255 HD
ATOM      8 HH12 ARG A   1      47.847   1.590   7.256  0.00  0.00    +0.255 HD
ATOM      9  HE  ARG A   1      44.912   3.582   6.953  0.00  0.00    +0.259 HD
ENDROOT
BRANCH   1  10
ATOM     10  CD  ARG A   1      46.706   3.222   5.821  0.00  0.00    +0.174 C 
BRANCH  10  11
ATOM     11  CG  ARG A   1      46.054   4.024   4.705  0.00  0.00    +0.045 C 
BRANCH  11  12
ATOM     12  CB  ARG A   1      46.966   4.138   3.494  0.00  0.00    +0.029 C 
BRANCH  12  13
ATOM     13  CA  ARG A   1      46.238   4.486   2.192  0.00  0.00    +0.133 C 
BRANCH  13  14
ATOM     14  N   ARG A   1      45.754   5.860   2.208  0.00  0.00    -0.239 NA
ATOM     15  H   ARG A   1      44.729   6.024   2.272  0.00  0.00    +0.142 HD
ENDBRANCH  13  14
BRANCH  13  16
ATOM     16  C   ARG A   1      45.004   3.606   2.058  0.00  0.00    +0.224 C 
ATOM     17  O   ARG A   1      43.900   4.108   1.862  0.00  0.00    -0.287 OA
ENDBRANCH  13  16
ENDBRANCH  12  13
ENDBRANCH  11  12
ENDBRANCH  10  11
ENDBRANCH   1  10
TORSDOF 6
REMARK  Name = ../refined-set-2016/1w4o/1w4o_pocket.pdb
REMARK  141 active torsions:
REMARK  status: ('A' for Active; 'I' for Inactive)
REMARK    1  A    between atoms: _1  and  _3
REMARK    2  A    between atoms: _3  and  _4
REMARK    3  A    between atoms: _7  and  _9
REMARK    4  A    between atoms: _9  and  _10
REMARK    5  A    between atoms: _9  and  _12
REMARK    6  A    between atoms: _12  and  _13
REMARK    7  A    between atoms: _13  and  _14
REMARK    8  A    between atoms: _14  and  _15
REMARK    9  A    between atoms: _15  and  _16
REMARK   10  A    between atoms: _20  and  _22
REMARK   11  A    between atoms: _22  and  _23
REMARK   12  A    between atoms: _22  and  _25
REMARK   13  A    between atoms: _25  and  _26
REMARK   14  A    between atoms: _32  and  _34
REMARK   15  A    between atoms: _34  and  _35
REMARK   16  A    between atoms: _34  and  _37
REMARK   17  A    between atoms: _37  and  _38
REMARK   18  A    between atoms: _38  and  _39
REMARK   19  A    between atoms: _39  and  _40
REMARK   20  A    between atoms: _49  and  _51
REMARK   21  A    between atoms: _51  and  _52
REMARK   22  A    between atoms: _51  and  _54
REMARK   23  A    between atoms: _54  and  _55
REMARK   24  A    between atoms: _55  and  _56
REMARK   25  A    between atoms: _61  and  _63
REMARK   26  A    between atoms: _63  and  _64
REMARK   27  A    between atoms: _63  and  _66
REMARK   28  A    between atoms: _66  and  _67
REMARK   29  A    between atoms: _72  and  _74
REMARK   30  A    between atoms: _74  and  _75
REMARK   31  A    between atoms: _74  and  _77
REMARK   32  A    between atoms: _77  and  _78
REMARK   33  A    between atoms: _78  and  _79
REMARK   34  A    between atoms: _81  and  _83
REMARK   35  A    between atoms: _83  and  _84
REMARK   36  A    between atoms: _83  and  _86
REMARK   37  A    between atoms: _86  and  _87
REMARK   38  A    between atoms: _90  and  _92
REMARK   39  A    between atoms: _92  and  _93
REMARK   40  A    between atoms: _92  and  _95
REMARK   41  A    between atoms: _95  and  _96
REMARK   42  A    between atoms: _96  and  _97
REMARK   43  A    between atoms: _97  and  _98
REMARK   44  A    between atoms: _107  and  _109
REMARK   45  A    between atoms: _109  and  _110
REMARK   46  A    between atoms: _109  and  _112
REMARK   47  A    between atoms: _112  and  _113
REMARK   48  A    between atoms: _113  and  _114
REMARK   49  A    between atoms: _114  and  _115
REMARK   50  A    between atoms: _115  and  _116
REMARK   51  A    between atoms: _121  and  _122
REMARK   52  A    between atoms: _127  and  _129
REMARK   53  A    between atoms: _129  and  _130
REMARK   54  A    between atoms: _129  and  _132
REMARK   55  A    between atoms: _135  and  _137
REMARK   56  A    between atoms: _137  and  _138
REMARK   57  A    between atoms: _137  and  _140
REMARK   58  A    between atoms: _140  and  _141
REMARK   59  A    between atoms: _146  and  _148
REMARK   60  A    between atoms: _148  and  _149
REMARK   61  A    between atoms: _148  and  _151
REMARK   62  A    between atoms: _151  and  _152
REMARK   63  A    between atoms: _155  and  _157
REMARK   64  A    between atoms: _157  and  _158
REMARK   65  A    between atoms: _157  and  _160
REMARK   66  A    between atoms: _160  and  _161
REMARK   67  A    between atoms: _167  and  _169
REMARK   68  A    between atoms: _169  and  _170
REMARK   69  A    between atoms: _169  and  _172
REMARK   70  A    between atoms: _175  and  _177
REMARK   71  A    between atoms: _177  and  _178
REMARK   72  A    between atoms: _177  and  _180
REMARK   73  A    between atoms: _180  and  _181
REMARK   74  A    between atoms: _181  and  _182
REMARK   75  A    between atoms: _182  and  _183
REMARK   76  A    between atoms: _183  and  _184
REMARK   77  A    between atoms: _188  and  _190
REMARK   78  A    between atoms: _190  and  _191
REMARK   79  A    between atoms: _190  and  _193
REMARK   80  A    between atoms: _193  and  _194
REMARK   81  A    between atoms: _197  and  _199
REMARK   82  A    between atoms: _199  and  _200
REMARK   83  A    between atoms: _199  and  _202
REMARK   84  A    between atoms: _202  and  _203
REMARK   85  A    between atoms: _206  and  _208
REMARK   86  A    between atoms: _208  and  _209
REMARK   87  A    between atoms: _208  and  _211
REMARK   88  A    between atoms: _211  and  _212
REMARK   89  A    between atoms: _215  and  _217
REMARK   90  A    between atoms: _217  and  _218
REMARK   91  A    between atoms: _217  and  _220
REMARK   92  A    between atoms: _222  and  _224
REMARK   93  A    between atoms: _224  and  _225
REMARK   94  A    between atoms: _224  and  _227
REMARK   95  A    between atoms: _227  and  _228
REMARK   96  A    between atoms: _228  and  _229
REMARK   97  A    between atoms: _229  and  _230
REMARK   98  A    between atoms: _239  and  _241
REMARK   99  A    between atoms: _241  and  _242
REMARK  100  A    between atoms: _241  and  _244
REMARK  101  A    between atoms: _244  and  _245
REMARK  102  A    between atoms: _245  and  _246
REMARK  103  A    between atoms: _246  and  _247
REMARK  104  A    between atoms: _247  and  _248
REMARK  105  A    between atoms: _252  and  _254
REMARK  106  A    between atoms: _254  and  _255
REMARK  107  A    between atoms: _254  and  _257
REMARK  108  A    between atoms: _257  and  _258
REMARK  109  A    between atoms: _261  and  _263
REMARK  110  A    between atoms: _263  and  _264
REMARK  111  A    between atoms: _263  and  _266
REMARK  112  A    between atoms: _266  and  _267
REMARK  113  A    between atoms: _270  and  _272
REMARK  114  A    between atoms: _272  and  _273
REMARK  115  A    between atoms: _272  and  _275
REMARK  116  A    between atoms: _278  and  _280
REMARK  117  A    between atoms: _280  and  _281
REMARK  118  A    between atoms: _284  and  _286
REMARK  119  A    between atoms: _286  and  _287
REMARK  120  A    between atoms: _286  and  _289
REMARK  121  A    between atoms: _292  and  _294
REMARK  122  A    between atoms: _294  and  _295
REMARK  123  A    between atoms: _294  and  _297
REMARK  124  A    between atoms: _297  and  _298
REMARK  125  A    between atoms: _303  and  _305
REMARK  126  A    between atoms: _305  and  _306
REMARK  127  A    between atoms: _305  and  _308
REMARK  128  A    between atoms: _308  and  _309
REMARK  129  A    between atoms: _315  and  _317
REMARK  130  A    between atoms: _317  and  _318
REMARK  131  A    between atoms: _317  and  _320
REMARK  132  A    between atoms: _320  and  _321
REMARK  133  A    between atoms: _324  and  _326
REMARK  134  A    between atoms: _326  and  _327
REMARK  135  A    between atoms: _330  and  _332
REMARK  136  A    between atoms: _332  and  _333
REMARK  137  A    between atoms: _332  and  _335
REMARK  138  A    between atoms: _335  and  _336
REMARK  139  A    between atoms: _338  and  _340
REMARK  140  A    between atoms: _340  and  _341
REMARK  141  A    between atoms: _340  and  _343
REMARK                            x       y       z     vdW  Elec       q    Type
REMARK                         _______ _______ _______ _____ _____    ______ ____
ROOT
ATOM      1  CA  ASN A   4      35.696  -1.462   7.418  0.00  0.00    +0.158 C 
ENDROOT
BRANCH   1   2
ATOM      2  C   ASN A   4      34.329  -2.070   7.175  0.00  0.00    +0.241 C 
ATOM      3  N   THR A   5      33.375  -1.741   8.044  0.00  0.00    -0.295 N 
ATOM      4  H   THR A   5      33.603  -1.084   8.817  0.00  0.00    +0.150 HD
ATOM      5  O   ASN A   4      34.139  -2.804   6.206  0.00  0.00    -0.273 OA
BRANCH   3   6
ATOM      6  CA  THR A   5      32.018  -2.274   7.945  0.00  0.00    +0.176 C 
BRANCH   6   7
ATOM      7  C   THR A   5      30.975  -1.200   7.630  0.00  0.00    +0.243 C 
ATOM      8  O   THR A   5      30.997  -0.112   8.207  0.00  0.00    -0.273 OA
ATOM      9  N   PHE A   6      30.067  -1.513   6.707  0.00  0.00    -0.297 N 
ATOM     10  H   PHE A   6      30.128  -2.438   6.236  0.00  0.00    +0.150 HD
BRANCH   9  11
ATOM     11  CA  PHE A   6      28.990  -0.602   6.335  0.00  0.00    +0.153 C 
BRANCH  11  12
ATOM     12  C   PHE A   6      27.695  -1.213   6.876  0.00  0.00    +0.241 C 
ATOM     13  N   VAL A   7      26.837  -0.378   7.451  0.00  0.00    -0.298 N 
ATOM     14  H   VAL A   7      27.068   0.635   7.502  0.00  0.00    +0.150 HD
ATOM     15  O   PHE A   6      27.494  -2.425   6.807  0.00  0.00    -0.273 OA
BRANCH  13  16
ATOM     16  CA  VAL A   7      25.579  -0.852   8.012  0.00  0.00    +0.137 C 
BRANCH  16  17
ATOM     17  CB  VAL A   7      25.385  -0.310   9.436  0.00  0.00    +0.026 C 
ATOM     18  CG2 VAL A   7      26.551  -0.762  10.307  0.00  0.00    +0.002 C 
ATOM     19  CG1 VAL A   7      24.068  -0.807  10.016  0.00  0.00    +0.002 C 
ENDBRANCH  16  17
BRANCH  16  20
ATOM     20  C   VAL A   7      24.403  -0.435   7.142  0.00  0.00    +0.227 C 
ATOM     21  O   VAL A   7      24.206   0.751   6.876  0.00  0.00    -0.286 OA
ENDBRANCH  16  20
ENDBRANCH  13  16
ENDBRANCH  11  12
BRANCH  11  22
ATOM     22  CB  PHE A   6      28.926  -0.438   4.804  0.00  0.00    +0.055 C 
BRANCH  22  23
ATOM     23  CG  PHE A   6      30.049   0.397   4.233  0.00  0.00    -0.020 A 
ATOM     24  CD2 PHE A   6      30.019   1.784   4.331  0.00  0.00    -0.004 A 
ATOM     25  CE2 PHE A   6      31.075   2.565   3.847  0.00  0.00    -0.000 A 
ATOM     26  CZ  PHE A   6      32.180   1.949   3.254  0.00  0.00    -0.000 A 
ATOM     27  CE1 PHE A   6      32.221   0.560   3.146  0.00  0.00    -0.000 A 
ATOM     28  CD1 PHE A   6      31.156  -0.208   3.635  0.00  0.00    -0.004 A 
ENDBRANCH  22  23
ENDBRANCH  11  22
ENDBRANCH   9  11
ENDBRANCH   6   7
BRANCH   6  29
ATOM     29  CB  THR A   5      31.614  -2.970   9.281  0.00  0.00    +0.137 C 
ATOM     30  CG2 THR A   5      30.237  -3.596   9.171  0.00  0.00    +0.034 C 
BRANCH  29  31
ATOM     31  OG1 THR A   5      32.572  -3.984   9.604  0.00  0.00    -0.382 OA
ATOM     32  HG1 THR A   5      32.597  -4.656   8.877  0.00  0.00    +0.210 HD
ENDBRANCH  29  31
ENDBRANCH   6  29
ENDBRANCH   3   6
ENDBRANCH   1   2
BRANCH   1  35
ATOM     33  C   VAL A   3      37.939  -2.314   7.754  0.00  0.00    +0.241 C 
ATOM     34  O   VAL A   3      38.240  -1.340   8.440  0.00  0.00    -0.273 OA
ATOM     35  N   ASN A   4      36.739  -2.459   7.203  0.00  0.00    -0.297 N 
ATOM     36  H   ASN A   4      36.541  -3.292   6.612  0.00  0.00    +0.150 HD
BRANCH  33  37
ATOM     37  CA  VAL A   3      38.953  -3.422   7.493  0.00  0.00    +0.149 C 
BRANCH  37  39
ATOM     38  C   PRO A   2      41.037  -3.222   6.227  0.00  0.00    +0.241 C 
ATOM     39  N   VAL A   3      40.278  -2.858   7.256  0.00  0.00    -0.297 N 
ATOM     40  H   VAL A   3      40.643  -2.143   7.918  0.00  0.00    +0.150 HD
ATOM     41  O   PRO A   2      40.684  -4.054   5.387  0.00  0.00    -0.273 OA
BRANCH  38  47
ATOM     42  C   LYS A   1      41.720  -0.360   5.163  0.00  0.00    +0.241 C 
ATOM     43  N   PRO A   2      42.442  -1.095   6.017  0.00  0.00    -0.272 N 
ATOM     44  CD  PRO A   2      43.331  -0.513   7.037  0.00  0.00    +0.094 C 
ATOM     45  CG  PRO A   2      44.207  -1.684   7.392  0.00  0.00    +0.024 C 
ATOM     46  CB  PRO A   2      43.239  -2.808   7.398  0.00  0.00    +0.031 C 
ATOM     47  CA  PRO A   2      42.413  -2.558   6.141  0.00  0.00    +0.152 C 
ATOM     48  O   LYS A   1      40.935  -0.866   4.368  0.00  0.00    -0.273 OA
BRANCH  42  49
ATOM     49  CA  LYS A   1      41.922   1.149   5.202  0.00  0.00    +0.145 C 
BRANCH  49  50
ATOM     50  N   LYS A   1      42.397   1.482   3.866  0.00  0.00    -0.238 NA
ATOM     51  H   LYS A   1      41.807   2.043   3.220  0.00  0.00    +0.142 HD
ENDBRANCH  49  50
BRANCH  49  52
ATOM     52  CB  LYS A   1      40.604   1.856   5.534  0.00  0.00    +0.026 C 
BRANCH  52  53
ATOM     53  CG  LYS A   1      40.202   1.663   6.994  0.00  0.00    -0.000 C 
BRANCH  53  54
ATOM     54  CD  LYS A   1      39.016   2.512   7.410  0.00  0.00    -0.024 C 
BRANCH  54  55
ATOM     55  CE  LYS A   1      38.806   2.407   8.921  0.00  0.00    -0.086 C 
BRANCH  55  56
ATOM     56  NZ  LYS A   1      37.594   3.119   9.404  0.00  0.00    +0.380 N 
ATOM     57  HZ1 LYS A   1      37.515   3.006  10.435  0.00  0.00    -0.089 HD
ATOM     58  HZ2 LYS A   1      37.671   4.129   9.170  0.00  0.00    -0.089 HD
ATOM     59  HZ3 LYS A   1      36.752   2.718   8.944  0.00  0.00    -0.089 HD
ENDBRANCH  55  56
ENDBRANCH  54  55
ENDBRANCH  53  54
ENDBRANCH  52  53
ENDBRANCH  49  52
ENDBRANCH  42  49
ENDBRANCH  38  47
ENDBRANCH  37  39
BRANCH  37  60
ATOM     60  CB  VAL A   3      38.968  -4.348   8.735  0.00  0.00    +0.027 C 
ATOM     61  CG2 VAL A   3      37.602  -4.983   8.938  0.00  0.00    +0.002 C 
ATOM     62  CG1 VAL A   3      40.051  -5.411   8.586  0.00  0.00    +0.002 C 
ENDBRANCH  37  60
ENDBRANCH  33  37
ENDBRANCH   1  35
BRANCH   1  63
ATOM     63  CB  ASN A   4      35.883  -0.260   6.495  0.00  0.00    +0.114 C 
BRANCH  63  64
ATOM     64  CG  ASN A   4      34.913   0.861   6.807  0.00  0.00    +0.222 C 
ATOM     65  OD1 ASN A   4      35.041   1.541   7.829  0.00  0.00    -0.275 OA
ATOM     66  ND2 ASN A   4      33.924   1.052   5.935  0.00  0.00    -0.329 N 
ATOM     67 HD21 ASN A   4      33.220   1.799   6.103  0.00  0.00    +0.145 HD
ATOM     68 HD22 ASN A   4      33.856   0.454   5.087  0.00  0.00    +0.145 HD
ENDBRANCH  63  64
ENDBRANCH   1  63
TORSDOF 26
REMARK  Name = ../refined-set-2016/1w4o/1w4o_pocket.pdb
REMARK  141 active torsions:
REMARK  status: ('A' for Active; 'I' for Inactive)
REMARK    1  A    between atoms: _1  and  _3
REMARK    2  A    between atoms: _3  and  _4
REMARK    3  A    between atoms: _7  and  _9
REMARK    4  A    between atoms: _9  and  _10
REMARK    5  A    between atoms: _9  and  _12
REMARK    6  A    between atoms: _12  and  _13
REMARK    7  A    between atoms: _13  and  _14
REMARK    8  A    between atoms: _14  and  _15
REMARK    9  A    between atoms: _15  and  _16
REMARK   10  A    between atoms: _20  and  _22
REMARK   11  A    between atoms: _22  and  _23
REMARK   12  A    between atoms: _22  and  _25
REMARK   13  A    between atoms: _25  and  _26
REMARK   14  A    between atoms: _32  and  _34
REMARK   15  A    between atoms: _34  and  _35
REMARK   16  A    between atoms: _34  and  _37
REMARK   17  A    between atoms: _37  and  _38
REMARK   18  A    between atoms: _38  and  _39
REMARK   19  A    between atoms: _39  and  _40
REMARK   20  A    between atoms: _49  and  _51
REMARK   21  A    between atoms: _51  and  _52
REMARK   22  A    between atoms: _51  and  _54
REMARK   23  A    between atoms: _54  and  _55
REMARK   24  A    between atoms: _55  and  _56
REMARK   25  A    between atoms: _61  and  _63
REMARK   26  A    between atoms: _63  and  _64
REMARK   27  A    between atoms: _63  and  _66
REMARK   28  A    between atoms: _66  and  _67
REMARK   29  A    between atoms: _72  and  _74
REMARK   30  A    between atoms: _74  and  _75
REMARK   31  A    between atoms: _74  and  _77
REMARK   32  A    between atoms: _77  and  _78
REMARK   33  A    between atoms: _78  and  _79
REMARK   34  A    between atoms: _81  and  _83
REMARK   35  A    between atoms: _83  and  _84
REMARK   36  A    between atoms: _83  and  _86
REMARK   37  A    between atoms: _86  and  _87
REMARK   38  A    between atoms: _90  and  _92
REMARK   39  A    between atoms: _92  and  _93
REMARK   40  A    between atoms: _92  and  _95
REMARK   41  A    between atoms: _95  and  _96
REMARK   42  A    between atoms: _96  and  _97
REMARK   43  A    between atoms: _97  and  _98
REMARK   44  A    between atoms: _107  and  _109
REMARK   45  A    between atoms: _109  and  _110
REMARK   46  A    between atoms: _109  and  _112
REMARK   47  A    between atoms: _112  and  _113
REMARK   48  A    between atoms: _113  and  _114
REMARK   49  A    between atoms: _114  and  _115
REMARK   50  A    between atoms: _115  and  _116
REMARK   51  A    between atoms: _121  and  _122
REMARK   52  A    between atoms: _127  and  _129
REMARK   53  A    between atoms: _129  and  _130
REMARK   54  A    between atoms: _129  and  _132
REMARK   55  A    between atoms: _135  and  _137
REMARK   56  A    between atoms: _137  and  _138
REMARK   57  A    between atoms: _137  and  _140
REMARK   58  A    between atoms: _140  and  _141
REMARK   59  A    between atoms: _146  and  _148
REMARK   60  A    between atoms: _148  and  _149
REMARK   61  A    between atoms: _148  and  _151
REMARK   62  A    between atoms: _151  and  _152
REMARK   63  A    between atoms: _155  and  _157
REMARK   64  A    between atoms: _157  and  _158
REMARK   65  A    between atoms: _157  and  _160
REMARK   66  A    between atoms: _160  and  _161
REMARK   67  A    between atoms: _167  and  _169
REMARK   68  A    between atoms: _169  and  _170
REMARK   69  A    between atoms: _169  and  _172
REMARK   70  A    between atoms: _175  and  _177
REMARK   71  A    between atoms: _177  and  _178
REMARK   72  A    between atoms: _177  and  _180
REMARK   73  A    between atoms: _180  and  _181
REMARK   74  A    between atoms: _181  and  _182
REMARK   75  A    between atoms: _182  and  _183
REMARK   76  A    between atoms: _183  and  _184
REMARK   77  A    between atoms: _188  and  _190
REMARK   78  A    between atoms: _190  and  _191
REMARK   79  A    between atoms: _190  and  _193
REMARK   80  A    between atoms: _193  and  _194
REMARK   81  A    between atoms: _197  and  _199
REMARK   82  A    between atoms: _199  and  _200
REMARK   83  A    between atoms: _199  and  _202
REMARK   84  A    between atoms: _202  and  _203
REMARK   85  A    between atoms: _206  and  _208
REMARK   86  A    between atoms: _208  and  _209
REMARK   87  A    between atoms: _208  and  _211
REMARK   88  A    between atoms: _211  and  _212
REMARK   89  A    between atoms: _215  and  _217
REMARK   90  A    between atoms: _217  and  _218
REMARK   91  A    between atoms: _217  and  _220
REMARK   92  A    between atoms: _222  and  _224
REMARK   93  A    between atoms: _224  and  _225
REMARK   94  A    between atoms: _224  and  _227
REMARK   95  A    between atoms: _227  and  _228
REMARK   96  A    between atoms: _228  and  _229
REMARK   97  A    between atoms: _229  and  _230
REMARK   98  A    between atoms: _239  and  _241
REMARK   99  A    between atoms: _241  and  _242
REMARK  100  A    between atoms: _241  and  _244
REMARK  101  A    between atoms: _244  and  _245
REMARK  102  A    between atoms: _245  and  _246
REMARK  103  A    between atoms: _246  and  _247
REMARK  104  A    between atoms: _247  and  _248
REMARK  105  A    between atoms: _252  and  _254
REMARK  106  A    between atoms: _254  and  _255
REMARK  107  A    between atoms: _254  and  _257
REMARK  108  A    between atoms: _257  and  _258
REMARK  109  A    between atoms: _261  and  _263
REMARK  110  A    between atoms: _263  and  _264
REMARK  111  A    between atoms: _263  and  _266
REMARK  112  A    between atoms: _266  and  _267
REMARK  113  A    between atoms: _270  and  _272
REMARK  114  A    between atoms: _272  and  _273
REMARK  115  A    between atoms: _272  and  _275
REMARK  116  A    between atoms: _278  and  _280
REMARK  117  A    between atoms: _280  and  _281
REMARK  118  A    between atoms: _284  and  _286
REMARK  119  A    between atoms: _286  and  _287
REMARK  120  A    between atoms: _286  and  _289
REMARK  121  A    between atoms: _292  and  _294
REMARK  122  A    between atoms: _294  and  _295
REMARK  123  A    between atoms: _294  and  _297
REMARK  124  A    between atoms: _297  and  _298
REMARK  125  A    between atoms: _303  and  _305
REMARK  126  A    between atoms: _305  and  _306
REMARK  127  A    between atoms: _305  and  _308
REMARK  128  A    between atoms: _308  and  _309
REMARK  129  A    between atoms: _315  and  _317
REMARK  130  A    between atoms: _317  and  _318
REMARK  131  A    between atoms: _317  and  _320
REMARK  132  A    between atoms: _320  and  _321
REMARK  133  A    between atoms: _324  and  _326
REMARK  134  A    between atoms: _326  and  _327
REMARK  135  A    between atoms: _330  and  _332
REMARK  136  A    between atoms: _332  and  _333
REMARK  137  A    between atoms: _332  and  _335
REMARK  138  A    between atoms: _335  and  _336
REMARK  139  A    between atoms: _338  and  _340
REMARK  140  A    between atoms: _340  and  _341
REMARK  141  A    between atoms: _340  and  _343
REMARK                            x       y       z     vdW  Elec       q    Type
REMARK                         _______ _______ _______ _____ _____    ______ ____
ROOT
ATOM      1  CG  LYS A   1      37.134  -5.371  20.451  0.00  0.00    -0.000 C 
ENDROOT
BRANCH   1   2
ATOM      2  CB  LYS A   1      38.059  -4.322  21.051  0.00  0.00    +0.025 C 
BRANCH   2   3
ATOM      3  CA  LYS A   1      37.790  -4.057  22.533  0.00  0.00    +0.133 C 
BRANCH   3   4
ATOM      4  N   LYS A   1      36.580  -3.262  22.692  0.00  0.00    -0.239 NA
ATOM      5  H   LYS A   1      36.087  -2.906  21.848  0.00  0.00    +0.142 HD
ENDBRANCH   3   4
BRANCH   3   6
ATOM      6  C   LYS A   1      39.021  -3.422  23.177  0.00  0.00    +0.224 C 
ATOM      7  O   LYS A   1      39.910  -4.134  23.634  0.00  0.00    -0.287 OA
ENDBRANCH   3   6
ENDBRANCH   2   3
ENDBRANCH   1   2
BRANCH   1   8
ATOM      8  CD  LYS A   1      37.453  -5.632  18.991  0.00  0.00    -0.024 C 
BRANCH   8   9
ATOM      9  CE  LYS A   1      36.800  -6.924  18.528  0.00  0.00    -0.086 C 
BRANCH   9  10
ATOM     10  NZ  LYS A   1      37.133  -7.247  17.115  0.00  0.00    +0.380 N 
ATOM     11  HZ1 LYS A   1      38.163  -7.352  17.018  0.00  0.00    -0.089 HD
ATOM     12  HZ2 LYS A   1      36.666  -8.136  16.844  0.00  0.00    -0.089 HD
ATOM     13  HZ3 LYS A   1      36.802  -6.478  16.498  0.00  0.00    -0.089 HD
ENDBRANCH   9  10
ENDBRANCH   8   9
ENDBRANCH   1   8
TORSDOF 7
REMARK  Name = ../refined-set-2016/1w4o/1w4o_pocket.pdb
REMARK  141 active torsions:
REMARK  status: ('A' for Active; 'I' for Inactive)
REMARK    1  A    between atoms: _1  and  _3
REMARK    2  A    between atoms: _3  and  _4
REMARK    3  A    between atoms: _7  and  _9
REMARK    4  A    between atoms: _9  and  _10
REMARK    5  A    between atoms: _9  and  _12
REMARK    6  A    between atoms: _12  and  _13
REMARK    7  A    between atoms: _13  and  _14
REMARK    8  A    between atoms: _14  and  _15
REMARK    9  A    between atoms: _15  and  _16
REMARK   10  A    between atoms: _20  and  _22
REMARK   11  A    between atoms: _22  and  _23
REMARK   12  A    between atoms: _22  and  _25
REMARK   13  A    between atoms: _25  and  _26
REMARK   14  A    between atoms: _32  and  _34
REMARK   15  A    between atoms: _34  and  _35
REMARK   16  A    between atoms: _34  and  _37
REMARK   17  A    between atoms: _37  and  _38
REMARK   18  A    between atoms: _38  and  _39
REMARK   19  A    between atoms: _39  and  _40
REMARK   20  A    between atoms: _49  and  _51
REMARK   21  A    between atoms: _51  and  _52
REMARK   22  A    between atoms: _51  and  _54
REMARK   23  A    between atoms: _54  and  _55
REMARK   24  A    between atoms: _55  and  _56
REMARK   25  A    between atoms: _61  and  _63
REMARK   26  A    between atoms: _63  and  _64
REMARK   27  A    between atoms: _63  and  _66
REMARK   28  A    between atoms: _66  and  _67
REMARK   29  A    between atoms: _72  and  _74
REMARK   30  A    between atoms: _74  and  _75
REMARK   31  A    between atoms: _74  and  _77
REMARK   32  A    between atoms: _77  and  _78
REMARK   33  A    between atoms: _78  and  _79
REMARK   34  A    between atoms: _81  and  _83
REMARK   35  A    between atoms: _83  and  _84
REMARK   36  A    between atoms: _83  and  _86
REMARK   37  A    between atoms: _86  and  _87
REMARK   38  A    between atoms: _90  and  _92
REMARK   39  A    between atoms: _92  and  _93
REMARK   40  A    between atoms: _92  and  _95
REMARK   41  A    between atoms: _95  and  _96
REMARK   42  A    between atoms: _96  and  _97
REMARK   43  A    between atoms: _97  and  _98
REMARK   44  A    between atoms: _107  and  _109
REMARK   45  A    between atoms: _109  and  _110
REMARK   46  A    between atoms: _109  and  _112
REMARK   47  A    between atoms: _112  and  _113
REMARK   48  A    between atoms: _113  and  _114
REMARK   49  A    between atoms: _114  and  _115
REMARK   50  A    between atoms: _115  and  _116
REMARK   51  A    between atoms: _121  and  _122
REMARK   52  A    between atoms: _127  and  _129
REMARK   53  A    between atoms: _129  and  _130
REMARK   54  A    between atoms: _129  and  _132
REMARK   55  A    between atoms: _135  and  _137
REMARK   56  A    between atoms: _137  and  _138
REMARK   57  A    between atoms: _137  and  _140
REMARK   58  A    between atoms: _140  and  _141
REMARK   59  A    between atoms: _146  and  _148
REMARK   60  A    between atoms: _148  and  _149
REMARK   61  A    between atoms: _148  and  _151
REMARK   62  A    between atoms: _151  and  _152
REMARK   63  A    between atoms: _155  and  _157
REMARK   64  A    between atoms: _157  and  _158
REMARK   65  A    between atoms: _157  and  _160
REMARK   66  A    between atoms: _160  and  _161
REMARK   67  A    between atoms: _167  and  _169
REMARK   68  A    between atoms: _169  and  _170
REMARK   69  A    between atoms: _169  and  _172
REMARK   70  A    between atoms: _175  and  _177
REMARK   71  A    between atoms: _177  and  _178
REMARK   72  A    between atoms: _177  and  _180
REMARK   73  A    between atoms: _180  and  _181
REMARK   74  A    between atoms: _181  and  _182
REMARK   75  A    between atoms: _182  and  _183
REMARK   76  A    between atoms: _183  and  _184
REMARK   77  A    between atoms: _188  and  _190
REMARK   78  A    between atoms: _190  and  _191
REMARK   79  A    between atoms: _190  and  _193
REMARK   80  A    between atoms: _193  and  _194
REMARK   81  A    between atoms: _197  and  _199
REMARK   82  A    between atoms: _199  and  _200
REMARK   83  A    between atoms: _199  and  _202
REMARK   84  A    between atoms: _202  and  _203
REMARK   85  A    between atoms: _206  and  _208
REMARK   86  A    between atoms: _208  and  _209
REMARK   87  A    between atoms: _208  and  _211
REMARK   88  A    between atoms: _211  and  _212
REMARK   89  A    between atoms: _215  and  _217
REMARK   90  A    between atoms: _217  and  _218
REMARK   91  A    between atoms: _217  and  _220
REMARK   92  A    between atoms: _222  and  _224
REMARK   93  A    between atoms: _224  and  _225
REMARK   94  A    between atoms: _224  and  _227
REMARK   95  A    between atoms: _227  and  _228
REMARK   96  A    between atoms: _228  and  _229
REMARK   97  A    between atoms: _229  and  _230
REMARK   98  A    between atoms: _239  and  _241
REMARK   99  A    between atoms: _241  and  _242
REMARK  100  A    between atoms: _241  and  _244
REMARK  101  A    between atoms: _244  and  _245
REMARK  102  A    between atoms: _245  and  _246
REMARK  103  A    between atoms: _246  and  _247
REMARK  104  A    between atoms: _247  and  _248
REMARK  105  A    between atoms: _252  and  _254
REMARK  106  A    between atoms: _254  and  _255
REMARK  107  A    between atoms: _254  and  _257
REMARK  108  A    between atoms: _257  and  _258
REMARK  109  A    between atoms: _261  and  _263
REMARK  110  A    between atoms: _263  and  _264
REMARK  111  A    between atoms: _263  and  _266
REMARK  112  A    between atoms: _266  and  _267
REMARK  113  A    between atoms: _270  and  _272
REMARK  114  A    between atoms: _272  and  _273
REMARK  115  A    between atoms: _272  and  _275
REMARK  116  A    between atoms: _278  and  _280
REMARK  117  A    between atoms: _280  and  _281
REMARK  118  A    between atoms: _284  and  _286
REMARK  119  A    between atoms: _286  and  _287
REMARK  120  A    between atoms: _286  and  _289
REMARK  121  A    between atoms: _292  and  _294
REMARK  122  A    between atoms: _294  and  _295
REMARK  123  A    between atoms: _294  and  _297
REMARK  124  A    between atoms: _297  and  _298
REMARK  125  A    between atoms: _303  and  _305
REMARK  126  A    between atoms: _305  and  _306
REMARK  127  A    between atoms: _305  and  _308
REMARK  128  A    between atoms: _308  and  _309
REMARK  129  A    between atoms: _315  and  _317
REMARK  130  A    between atoms: _317  and  _318
REMARK  131  A    between atoms: _317  and  _320
REMARK  132  A    between atoms: _320  and  _321
REMARK  133  A    between atoms: _324  and  _326
REMARK  134  A    between atoms: _326  and  _327
REMARK  135  A    between atoms: _330  and  _332
REMARK  136  A    between atoms: _332  and  _333
REMARK  137  A    between atoms: _332  and  _335
REMARK  138  A    between atoms: _335  and  _336
REMARK  139  A    between atoms: _338  and  _340
REMARK  140  A    between atoms: _340  and  _341
REMARK  141  A    between atoms: _340  and  _343
REMARK                            x       y       z     vdW  Elec       q    Type
REMARK                         _______ _______ _______ _____ _____    ______ ____
ROOT
ATOM      1  C   ASP A   3      33.281  -6.093   4.568  0.00  0.00    +0.241 C 
ATOM      2  N   CYS A   4      34.234  -5.175   4.658  0.00  0.00    -0.296 N 
ATOM      3  H   CYS A   4      34.309  -4.608   5.527  0.00  0.00    +0.150 HD
ATOM      4  O   ASP A   3      33.094  -6.782   3.565  0.00  0.00    -0.273 OA
ENDROOT
BRANCH   2   5
ATOM      5  CA  CYS A   4      35.176  -4.939   3.579  0.00  0.00    +0.160 C 
BRANCH   5   6
ATOM      6  C   CYS A   4      36.569  -5.214   4.120  0.00  0.00    +0.242 C 
ATOM      7  O   CYS A   4      37.027  -4.534   5.038  0.00  0.00    -0.273 OA
ATOM      8  N   ARG A   5      37.234  -6.215   3.553  0.00  0.00    -0.298 N 
ATOM      9  H   ARG A   5      36.784  -6.752   2.784  0.00  0.00    +0.150 HD
BRANCH   8  10
ATOM     10  CA  ARG A   5      38.576  -6.579   3.981  0.00  0.00    +0.137 C 
BRANCH  10  11
ATOM     11  C   ARG A   5      39.535  -6.534   2.799  0.00  0.00    +0.227 C 
ATOM     12  O   ARG A   5      39.286  -7.149   1.760  0.00  0.00    -0.286 OA
ENDBRANCH  10  11
BRANCH  10  13
ATOM     13  CB  ARG A   5      38.588  -7.988   4.570  0.00  0.00    +0.031 C 
BRANCH  13  14
ATOM     14  CG  ARG A   5      39.936  -8.389   5.154  0.00  0.00    +0.045 C 
BRANCH  14  15
ATOM     15  CD  ARG A   5      40.226  -9.872   4.951  0.00  0.00    +0.174 C 
BRANCH  15  16
ATOM     16  NE  ARG A   5      40.482 -10.184   3.545  0.00  0.00    -0.265 N 
ATOM     17  CZ  ARG A   5      40.838 -11.383   3.095  0.00  0.00    +0.342 C 
ATOM     18  NH2 ARG A   5      40.982 -12.395   3.939  0.00  0.00    -0.292 N 
ATOM     19 HH21 ARG A   5      40.816 -12.252   4.956  0.00  0.00    +0.255 HD
ATOM     20 HH22 ARG A   5      41.261 -13.332   3.584  0.00  0.00    +0.255 HD
ATOM     21  NH1 ARG A   5      41.053 -11.569   1.798  0.00  0.00    -0.292 N 
ATOM     22 HH11 ARG A   5      41.332 -12.507   1.446  0.00  0.00    +0.255 HD
ATOM     23 HH12 ARG A   5      40.943 -10.776   1.134  0.00  0.00    +0.255 HD
ATOM     24  HE  ARG A   5      40.379  -9.416   2.851  0.00  0.00    +0.259 HD
ENDBRANCH  15  16
ENDBRANCH  14  15
ENDBRANCH  13  14
ENDBRANCH  10  13
ENDBRANCH   8  10
ENDBRANCH   5   6
BRANCH   5  25
ATOM     25  CB  CYS A   4      35.095  -3.495   3.100  0.00  0.00    +0.098 C 
ATOM     26  SG  CYS A   4      33.525  -3.033   2.309  0.00  0.00    -0.080 S 
ENDBRANCH   5  25
ENDBRANCH   2   5
BRANCH   1  27
ATOM     27  CA  ASP A   3      32.397  -6.248   5.791  0.00  0.00    +0.160 C 
BRANCH  27  30
ATOM     28  C   THR A   2      30.225  -5.327   5.251  0.00  0.00    +0.243 C 
ATOM     29  O   THR A   2      30.586  -4.187   5.546  0.00  0.00    -0.273 OA
ATOM     30  N   ASP A   3      31.014  -6.389   5.362  0.00  0.00    -0.296 N 
ATOM     31  H   ASP A   3      30.639  -7.333   5.140  0.00  0.00    +0.150 HD
BRANCH  28  32
ATOM     32  CA  THR A   2      28.812  -5.587   4.760  0.00  0.00    +0.176 C 
BRANCH  32  34
ATOM     33  C   ILE A   1      26.847  -5.867   6.138  0.00  0.00    +0.238 C 
ATOM     34  N   THR A   2      27.881  -5.128   5.770  0.00  0.00    -0.295 N 
ATOM     35  H   THR A   2      28.028  -4.199   6.215  0.00  0.00    +0.150 HD
ATOM     36  O   ILE A   1      26.602  -6.971   5.652  0.00  0.00    -0.274 OA
BRANCH  33  37
ATOM     37  CA  ILE A   1      25.981  -5.268   7.236  0.00  0.00    +0.145 C 
BRANCH  37  38
ATOM     38  CB  ILE A   1      26.791  -5.353   8.541  0.00  0.00    +0.025 C 
ATOM     39  CG2 ILE A   1      25.975  -4.767   9.687  0.00  0.00    +0.002 C 
BRANCH  38  40
ATOM     40  CG1 ILE A   1      27.171  -6.816   8.818  0.00  0.00    +0.002 C 
ATOM     41  CD1 ILE A   1      28.103  -7.013  10.021  0.00  0.00    +0.000 C 
ENDBRANCH  38  40
ENDBRANCH  37  38
BRANCH  37  42
ATOM     42  N   ILE A   1      24.696  -5.941   7.364  0.00  0.00    -0.238 NA
ATOM     43  H   ILE A   1      24.665  -6.980   7.353  0.00  0.00    +0.142 HD
ENDBRANCH  37  42
ENDBRANCH  33  37
ENDBRANCH  32  34
BRANCH  32  44
ATOM     44  CB  THR A   2      28.606  -4.845   3.429  0.00  0.00    +0.137 C 
ATOM     45  CG2 THR A   2      29.548  -5.401   2.370  0.00  0.00    +0.034 C 
BRANCH  44  46
ATOM     46  OG1 THR A   2      27.247  -5.008   2.996  0.00  0.00    -0.382 OA
ATOM     47  HG1 THR A   2      26.637  -4.635   3.680  0.00  0.00    +0.210 HD
ENDBRANCH  44  46
ENDBRANCH  32  44
ENDBRANCH  28  32
ENDBRANCH  27  30
BRANCH  27  48
ATOM     48  CB  ASP A   3      32.869  -7.469   6.581  0.00  0.00    +0.143 C 
BRANCH  48  49
ATOM     49  CG  ASP A   3      32.251  -7.547   7.957  0.00  0.00    +0.367 C 
ATOM     50  OD2 ASP A   3      32.119  -6.489   8.607  0.00  0.00    -0.246 OA
ATOM     51  OD1 ASP A   3      31.909  -8.667   8.394  0.00  0.00    -0.246 OA
ENDBRANCH  48  49
ENDBRANCH  27  48
ENDBRANCH   1  27
TORSDOF 21
REMARK  Name = ../refined-set-2016/1w4o/1w4o_pocket.pdb
REMARK  141 active torsions:
REMARK  status: ('A' for Active; 'I' for Inactive)
REMARK    1  A    between atoms: _1  and  _3
REMARK    2  A    between atoms: _3  and  _4
REMARK    3  A    between atoms: _7  and  _9
REMARK    4  A    between atoms: _9  and  _10
REMARK    5  A    between atoms: _9  and  _12
REMARK    6  A    between atoms: _12  and  _13
REMARK    7  A    between atoms: _13  and  _14
REMARK    8  A    between atoms: _14  and  _15
REMARK    9  A    between atoms: _15  and  _16
REMARK   10  A    between atoms: _20  and  _22
REMARK   11  A    between atoms: _22  and  _23
REMARK   12  A    between atoms: _22  and  _25
REMARK   13  A    between atoms: _25  and  _26
REMARK   14  A    between atoms: _32  and  _34
REMARK   15  A    between atoms: _34  and  _35
REMARK   16  A    between atoms: _34  and  _37
REMARK   17  A    between atoms: _37  and  _38
REMARK   18  A    between atoms: _38  and  _39
REMARK   19  A    between atoms: _39  and  _40
REMARK   20  A    between atoms: _49  and  _51
REMARK   21  A    between atoms: _51  and  _52
REMARK   22  A    between atoms: _51  and  _54
REMARK   23  A    between atoms: _54  and  _55
REMARK   24  A    between atoms: _55  and  _56
REMARK   25  A    between atoms: _61  and  _63
REMARK   26  A    between atoms: _63  and  _64
REMARK   27  A    between atoms: _63  and  _66
REMARK   28  A    between atoms: _66  and  _67
REMARK   29  A    between atoms: _72  and  _74
REMARK   30  A    between atoms: _74  and  _75
REMARK   31  A    between atoms: _74  and  _77
REMARK   32  A    between atoms: _77  and  _78
REMARK   33  A    between atoms: _78  and  _79
REMARK   34  A    between atoms: _81  and  _83
REMARK   35  A    between atoms: _83  and  _84
REMARK   36  A    between atoms: _83  and  _86
REMARK   37  A    between atoms: _86  and  _87
REMARK   38  A    between atoms: _90  and  _92
REMARK   39  A    between atoms: _92  and  _93
REMARK   40  A    between atoms: _92  and  _95
REMARK   41  A    between atoms: _95  and  _96
REMARK   42  A    between atoms: _96  and  _97
REMARK   43  A    between atoms: _97  and  _98
REMARK   44  A    between atoms: _107  and  _109
REMARK   45  A    between atoms: _109  and  _110
REMARK   46  A    between atoms: _109  and  _112
REMARK   47  A    between atoms: _112  and  _113
REMARK   48  A    between atoms: _113  and  _114
REMARK   49  A    between atoms: _114  and  _115
REMARK   50  A    between atoms: _115  and  _116
REMARK   51  A    between atoms: _121  and  _122
REMARK   52  A    between atoms: _127  and  _129
REMARK   53  A    between atoms: _129  and  _130
REMARK   54  A    between atoms: _129  and  _132
REMARK   55  A    between atoms: _135  and  _137
REMARK   56  A    between atoms: _137  and  _138
REMARK   57  A    between atoms: _137  and  _140
REMARK   58  A    between atoms: _140  and  _141
REMARK   59  A    between atoms: _146  and  _148
REMARK   60  A    between atoms: _148  and  _149
REMARK   61  A    between atoms: _148  and  _151
REMARK   62  A    between atoms: _151  and  _152
REMARK   63  A    between atoms: _155  and  _157
REMARK   64  A    between atoms: _157  and  _158
REMARK   65  A    between atoms: _157  and  _160
REMARK   66  A    between atoms: _160  and  _161
REMARK   67  A    between atoms: _167  and  _169
REMARK   68  A    between atoms: _169  and  _170
REMARK   69  A    between atoms: _169  and  _172
REMARK   70  A    between atoms: _175  and  _177
REMARK   71  A    between atoms: _177  and  _178
REMARK   72  A    between atoms: _177  and  _180
REMARK   73  A    between atoms: _180  and  _181
REMARK   74  A    between atoms: _181  and  _182
REMARK   75  A    between atoms: _182  and  _183
REMARK   76  A    between atoms: _183  and  _184
REMARK   77  A    between atoms: _188  and  _190
REMARK   78  A    between atoms: _190  and  _191
REMARK   79  A    between atoms: _190  and  _193
REMARK   80  A    between atoms: _193  and  _194
REMARK   81  A    between atoms: _197  and  _199
REMARK   82  A    between atoms: _199  and  _200
REMARK   83  A    between atoms: _199  and  _202
REMARK   84  A    between atoms: _202  and  _203
REMARK   85  A    between atoms: _206  and  _208
REMARK   86  A    between atoms: _208  and  _209
REMARK   87  A    between atoms: _208  and  _211
REMARK   88  A    between atoms: _211  and  _212
REMARK   89  A    between atoms: _215  and  _217
REMARK   90  A    between atoms: _217  and  _218
REMARK   91  A    between atoms: _217  and  _220
REMARK   92  A    between atoms: _222  and  _224
REMARK   93  A    between atoms: _224  and  _225
REMARK   94  A    between atoms: _224  and  _227
REMARK   95  A    between atoms: _227  and  _228
REMARK   96  A    between atoms: _228  and  _229
REMARK   97  A    between atoms: _229  and  _230
REMARK   98  A    between atoms: _239  and  _241
REMARK   99  A    between atoms: _241  and  _242
REMARK  100  A    between atoms: _241  and  _244
REMARK  101  A    between atoms: _244  and  _245
REMARK  102  A    between atoms: _245  and  _246
REMARK  103  A    between atoms: _246  and  _247
REMARK  104  A    between atoms: _247  and  _248
REMARK  105  A    between atoms: _252  and  _254
REMARK  106  A    between atoms: _254  and  _255
REMARK  107  A    between atoms: _254  and  _257
REMARK  108  A    between atoms: _257  and  _258
REMARK  109  A    between atoms: _261  and  _263
REMARK  110  A    between atoms: _263  and  _264
REMARK  111  A    between atoms: _263  and  _266
REMARK  112  A    between atoms: _266  and  _267
REMARK  113  A    between atoms: _270  and  _272
REMARK  114  A    between atoms: _272  and  _273
REMARK  115  A    between atoms: _272  and  _275
REMARK  116  A    between atoms: _278  and  _280
REMARK  117  A    between atoms: _280  and  _281
REMARK  118  A    between atoms: _284  and  _286
REMARK  119  A    between atoms: _286  and  _287
REMARK  120  A    between atoms: _286  and  _289
REMARK  121  A    between atoms: _292  and  _294
REMARK  122  A    between atoms: _294  and  _295
REMARK  123  A    between atoms: _294  and  _297
REMARK  124  A    between atoms: _297  and  _298
REMARK  125  A    between atoms: _303  and  _305
REMARK  126  A    between atoms: _305  and  _306
REMARK  127  A    between atoms: _305  and  _308
REMARK  128  A    between atoms: _308  and  _309
REMARK  129  A    between atoms: _315  and  _317
REMARK  130  A    between atoms: _317  and  _318
REMARK  131  A    between atoms: _317  and  _320
REMARK  132  A    between atoms: _320  and  _321
REMARK  133  A    between atoms: _324  and  _326
REMARK  134  A    between atoms: _326  and  _327
REMARK  135  A    between atoms: _330  and  _332
REMARK  136  A    between atoms: _332  and  _333
REMARK  137  A    between atoms: _332  and  _335
REMARK  138  A    between atoms: _335  and  _336
REMARK  139  A    between atoms: _338  and  _340
REMARK  140  A    between atoms: _340  and  _341
REMARK  141  A    between atoms: _340  and  _343
REMARK                            x       y       z     vdW  Elec       q    Type
REMARK                         _______ _______ _______ _____ _____    ______ ____
ROOT
ATOM      1  CG  LYS A   1      26.794 -10.978  11.600  0.00  0.00    -0.000 C 
ENDROOT
BRANCH   1   2
ATOM      2  CB  LYS A   1      26.332  -9.891  12.566  0.00  0.00    +0.025 C 
BRANCH   2   3
ATOM      3  CA  LYS A   1      24.810  -9.735  12.680  0.00  0.00    +0.133 C 
BRANCH   3   4
ATOM      4  N   LYS A   1      24.243  -9.549  11.355  0.00  0.00    -0.239 NA
ATOM      5  H   LYS A   1      24.196  -8.595  10.943  0.00  0.00    +0.142 HD
ENDBRANCH   3   4
BRANCH   3   6
ATOM      6  C   LYS A   1      24.499  -8.566  13.595  0.00  0.00    +0.224 C 
ATOM      7  O   LYS A   1      24.048  -7.508  13.154  0.00  0.00    -0.287 OA
ENDBRANCH   3   6
ENDBRANCH   2   3
ENDBRANCH   1   2
BRANCH   1   8
ATOM      8  CD  LYS A   1      28.311 -11.019  11.471  0.00  0.00    -0.024 C 
BRANCH   8   9
ATOM      9  CE  LYS A   1      28.992 -11.351  12.792  0.00  0.00    -0.086 C 
BRANCH   9  10
ATOM     10  NZ  LYS A   1      30.482 -11.395  12.670  0.00  0.00    +0.380 N 
ATOM     11  HZ1 LYS A   1      30.898 -11.625  13.595  0.00  0.00    -0.089 HD
ATOM     12  HZ2 LYS A   1      30.830 -10.468  12.353  0.00  0.00    -0.089 HD
ATOM     13  HZ3 LYS A   1      30.751 -12.123  11.978  0.00  0.00    -0.089 HD
ENDBRANCH   9  10
ENDBRANCH   8   9
ENDBRANCH   1   8
TORSDOF 7
REMARK  Name = ../refined-set-2016/1w4o/1w4o_pocket.pdb
REMARK  141 active torsions:
REMARK  status: ('A' for Active; 'I' for Inactive)
REMARK    1  A    between atoms: _1  and  _3
REMARK    2  A    between atoms: _3  and  _4
REMARK    3  A    between atoms: _7  and  _9
REMARK    4  A    between atoms: _9  and  _10
REMARK    5  A    between atoms: _9  and  _12
REMARK    6  A    between atoms: _12  and  _13
REMARK    7  A    between atoms: _13  and  _14
REMARK    8  A    between atoms: _14  and  _15
REMARK    9  A    between atoms: _15  and  _16
REMARK   10  A    between atoms: _20  and  _22
REMARK   11  A    between atoms: _22  and  _23
REMARK   12  A    between atoms: _22  and  _25
REMARK   13  A    between atoms: _25  and  _26
REMARK   14  A    between atoms: _32  and  _34
REMARK   15  A    between atoms: _34  and  _35
REMARK   16  A    between atoms: _34  and  _37
REMARK   17  A    between atoms: _37  and  _38
REMARK   18  A    between atoms: _38  and  _39
REMARK   19  A    between atoms: _39  and  _40
REMARK   20  A    between atoms: _49  and  _51
REMARK   21  A    between atoms: _51  and  _52
REMARK   22  A    between atoms: _51  and  _54
REMARK   23  A    between atoms: _54  and  _55
REMARK   24  A    between atoms: _55  and  _56
REMARK   25  A    between atoms: _61  and  _63
REMARK   26  A    between atoms: _63  and  _64
REMARK   27  A    between atoms: _63  and  _66
REMARK   28  A    between atoms: _66  and  _67
REMARK   29  A    between atoms: _72  and  _74
REMARK   30  A    between atoms: _74  and  _75
REMARK   31  A    between atoms: _74  and  _77
REMARK   32  A    between atoms: _77  and  _78
REMARK   33  A    between atoms: _78  and  _79
REMARK   34  A    between atoms: _81  and  _83
REMARK   35  A    between atoms: _83  and  _84
REMARK   36  A    between atoms: _83  and  _86
REMARK   37  A    between atoms: _86  and  _87
REMARK   38  A    between atoms: _90  and  _92
REMARK   39  A    between atoms: _92  and  _93
REMARK   40  A    between atoms: _92  and  _95
REMARK   41  A    between atoms: _95  and  _96
REMARK   42  A    between atoms: _96  and  _97
REMARK   43  A    between atoms: _97  and  _98
REMARK   44  A    between atoms: _107  and  _109
REMARK   45  A    between atoms: _109  and  _110
REMARK   46  A    between atoms: _109  and  _112
REMARK   47  A    between atoms: _112  and  _113
REMARK   48  A    between atoms: _113  and  _114
REMARK   49  A    between atoms: _114  and  _115
REMARK   50  A    between atoms: _115  and  _116
REMARK   51  A    between atoms: _121  and  _122
REMARK   52  A    between atoms: _127  and  _129
REMARK   53  A    between atoms: _129  and  _130
REMARK   54  A    between atoms: _129  and  _132
REMARK   55  A    between atoms: _135  and  _137
REMARK   56  A    between atoms: _137  and  _138
REMARK   57  A    between atoms: _137  and  _140
REMARK   58  A    between atoms: _140  and  _141
REMARK   59  A    between atoms: _146  and  _148
REMARK   60  A    between atoms: _148  and  _149
REMARK   61  A    between atoms: _148  and  _151
REMARK   62  A    between atoms: _151  and  _152
REMARK   63  A    between atoms: _155  and  _157
REMARK   64  A    between atoms: _157  and  _158
REMARK   65  A    between atoms: _157  and  _160
REMARK   66  A    between atoms: _160  and  _161
REMARK   67  A    between atoms: _167  and  _169
REMARK   68  A    between atoms: _169  and  _170
REMARK   69  A    between atoms: _169  and  _172
REMARK   70  A    between atoms: _175  and  _177
REMARK   71  A    between atoms: _177  and  _178
REMARK   72  A    between atoms: _177  and  _180
REMARK   73  A    between atoms: _180  and  _181
REMARK   74  A    between atoms: _181  and  _182
REMARK   75  A    between atoms: _182  and  _183
REMARK   76  A    between atoms: _183  and  _184
REMARK   77  A    between atoms: _188  and  _190
REMARK   78  A    between atoms: _190  and  _191
REMARK   79  A    between atoms: _190  and  _193
REMARK   80  A    between atoms: _193  and  _194
REMARK   81  A    between atoms: _197  and  _199
REMARK   82  A    between atoms: _199  and  _200
REMARK   83  A    between atoms: _199  and  _202
REMARK   84  A    between atoms: _202  and  _203
REMARK   85  A    between atoms: _206  and  _208
REMARK   86  A    between atoms: _208  and  _209
REMARK   87  A    between atoms: _208  and  _211
REMARK   88  A    between atoms: _211  and  _212
REMARK   89  A    between atoms: _215  and  _217
REMARK   90  A    between atoms: _217  and  _218
REMARK   91  A    between atoms: _217  and  _220
REMARK   92  A    between atoms: _222  and  _224
REMARK   93  A    between atoms: _224  and  _225
REMARK   94  A    between atoms: _224  and  _227
REMARK   95  A    between atoms: _227  and  _228
REMARK   96  A    between atoms: _228  and  _229
REMARK   97  A    between atoms: _229  and  _230
REMARK   98  A    between atoms: _239  and  _241
REMARK   99  A    between atoms: _241  and  _242
REMARK  100  A    between atoms: _241  and  _244
REMARK  101  A    between atoms: _244  and  _245
REMARK  102  A    between atoms: _245  and  _246
REMARK  103  A    between atoms: _246  and  _247
REMARK  104  A    between atoms: _247  and  _248
REMARK  105  A    between atoms: _252  and  _254
REMARK  106  A    between atoms: _254  and  _255
REMARK  107  A    between atoms: _254  and  _257
REMARK  108  A    between atoms: _257  and  _258
REMARK  109  A    between atoms: _261  and  _263
REMARK  110  A    between atoms: _263  and  _264
REMARK  111  A    between atoms: _263  and  _266
REMARK  112  A    between atoms: _266  and  _267
REMARK  113  A    between atoms: _270  and  _272
REMARK  114  A    between atoms: _272  and  _273
REMARK  115  A    between atoms: _272  and  _275
REMARK  116  A    between atoms: _278  and  _280
REMARK  117  A    between atoms: _280  and  _281
REMARK  118  A    between atoms: _284  and  _286
REMARK  119  A    between atoms: _286  and  _287
REMARK  120  A    between atoms: _286  and  _289
REMARK  121  A    between atoms: _292  and  _294
REMARK  122  A    between atoms: _294  and  _295
REMARK  123  A    between atoms: _294  and  _297
REMARK  124  A    between atoms: _297  and  _298
REMARK  125  A    between atoms: _303  and  _305
REMARK  126  A    between atoms: _305  and  _306
REMARK  127  A    between atoms: _305  and  _308
REMARK  128  A    between atoms: _308  and  _309
REMARK  129  A    between atoms: _315  and  _317
REMARK  130  A    between atoms: _317  and  _318
REMARK  131  A    between atoms: _317  and  _320
REMARK  132  A    between atoms: _320  and  _321
REMARK  133  A    between atoms: _324  and  _326
REMARK  134  A    between atoms: _326  and  _327
REMARK  135  A    between atoms: _330  and  _332
REMARK  136  A    between atoms: _332  and  _333
REMARK  137  A    between atoms: _332  and  _335
REMARK  138  A    between atoms: _335  and  _336
REMARK  139  A    between atoms: _338  and  _340
REMARK  140  A    between atoms: _340  and  _341
REMARK  141  A    between atoms: _340  and  _343
REMARK                            x       y       z     vdW  Elec       q    Type
REMARK                         _______ _______ _______ _____ _____    ______ ____
ROOT
ATOM      1  CA  ILE A   2      28.778  -3.093  18.389  0.00  0.00    +0.148 C 
ENDROOT
BRANCH   1   4
ATOM      2  C   ILE A   1      27.035  -4.050  16.982  0.00  0.00    +0.238 C 
ATOM      3  O   ILE A   1      26.193  -3.970  17.873  0.00  0.00    -0.274 OA
ATOM      4  N   ILE A   2      28.303  -3.690  17.148  0.00  0.00    -0.297 N 
ATOM      5  H   ILE A   2      28.976  -3.839  16.369  0.00  0.00    +0.150 HD
BRANCH   2   6
ATOM      6  CA  ILE A   1      26.672  -4.601  15.607  0.00  0.00    +0.145 C 
BRANCH   6   7
ATOM      7  N   ILE A   1      25.525  -5.494  15.706  0.00  0.00    -0.238 NA
ATOM      8  H   ILE A   1      24.559  -5.111  15.759  0.00  0.00    +0.142 HD
ENDBRANCH   6   7
BRANCH   6   9
ATOM      9  CB  ILE A   1      26.401  -3.402  14.659  0.00  0.00    +0.025 C 
ATOM     10  CG2 ILE A   1      26.014  -3.911  13.275  0.00  0.00    +0.002 C 
BRANCH   9  11
ATOM     11  CG1 ILE A   1      25.297  -2.507  15.232  0.00  0.00    +0.002 C 
ATOM     12  CD1 ILE A   1      25.206  -1.140  14.567  0.00  0.00    +0.000 C 
ENDBRANCH   9  11
ENDBRANCH   6   9
ENDBRANCH   2   6
ENDBRANCH   1   4
BRANCH   1  13
ATOM     13  C   ILE A   2      29.478  -1.783  18.032  0.00  0.00    +0.241 C 
ATOM     14  N   VAL A   3      28.969  -0.689  18.583  0.00  0.00    -0.297 N 
ATOM     15  H   VAL A   3      28.148  -0.776  19.215  0.00  0.00    +0.150 HD
ATOM     16  O   ILE A   2      30.426  -1.758  17.244  0.00  0.00    -0.273 OA
BRANCH  14  17
ATOM     17  CA  VAL A   3      29.528   0.628  18.327  0.00  0.00    +0.149 C 
BRANCH  17  18
ATOM     18  C   VAL A   3      29.852   1.364  19.624  0.00  0.00    +0.241 C 
ATOM     19  O   VAL A   3      29.278   1.083  20.675  0.00  0.00    -0.273 OA
ATOM     20  N   ALA A   4      30.794   2.293  19.540  0.00  0.00    -0.298 N 
ATOM     21  H   ALA A   4      31.281   2.447  18.634  0.00  0.00    +0.150 HD
BRANCH  20  22
ATOM     22  CA  ALA A   4      31.159   3.102  20.695  0.00  0.00    +0.137 C 
ATOM     23  CB  ALA A   4      32.653   3.356  20.720  0.00  0.00    +0.030 C 
BRANCH  22  24
ATOM     24  C   ALA A   4      30.410   4.414  20.509  0.00  0.00    +0.227 C 
ATOM     25  O   ALA A   4      30.331   4.942  19.398  0.00  0.00    -0.286 OA
ENDBRANCH  22  24
ENDBRANCH  20  22
ENDBRANCH  17  18
BRANCH  17  26
ATOM     26  CB  VAL A   3      28.543   1.491  17.507  0.00  0.00    +0.027 C 
ATOM     27  CG2 VAL A   3      27.240   1.663  18.271  0.00  0.00    +0.002 C 
ATOM     28  CG1 VAL A   3      28.284   0.825  16.160  0.00  0.00    +0.002 C 
ENDBRANCH  17  26
ENDBRANCH  14  17
ENDBRANCH   1  13
BRANCH   1  29
ATOM     29  CB  ILE A   2      29.762  -4.005  19.141  0.00  0.00    +0.027 C 
ATOM     30  CG2 ILE A   2      30.251  -3.286  20.386  0.00  0.00    +0.002 C 
BRANCH  29  31
ATOM     31  CG1 ILE A   2      29.064  -5.312  19.539  0.00  0.00    +0.002 C 
ATOM     32  CD1 ILE A   2      29.959  -6.307  20.271  0.00  0.00    +0.000 C 
ENDBRANCH  29  31
ENDBRANCH   1  29
TORSDOF 13
REMARK  Name = ../refined-set-2016/1w4o/1w4o_pocket.pdb
REMARK  141 active torsions:
REMARK  status: ('A' for Active; 'I' for Inactive)
REMARK    1  A    between atoms: _1  and  _3
REMARK    2  A    between atoms: _3  and  _4
REMARK    3  A    between atoms: _7  and  _9
REMARK    4  A    between atoms: _9  and  _10
REMARK    5  A    between atoms: _9  and  _12
REMARK    6  A    between atoms: _12  and  _13
REMARK    7  A    between atoms: _13  and  _14
REMARK    8  A    between atoms: _14  and  _15
REMARK    9  A    between atoms: _15  and  _16
REMARK   10  A    between atoms: _20  and  _22
REMARK   11  A    between atoms: _22  and  _23
REMARK   12  A    between atoms: _22  and  _25
REMARK   13  A    between atoms: _25  and  _26
REMARK   14  A    between atoms: _32  and  _34
REMARK   15  A    between atoms: _34  and  _35
REMARK   16  A    between atoms: _34  and  _37
REMARK   17  A    between atoms: _37  and  _38
REMARK   18  A    between atoms: _38  and  _39
REMARK   19  A    between atoms: _39  and  _40
REMARK   20  A    between atoms: _49  and  _51
REMARK   21  A    between atoms: _51  and  _52
REMARK   22  A    between atoms: _51  and  _54
REMARK   23  A    between atoms: _54  and  _55
REMARK   24  A    between atoms: _55  and  _56
REMARK   25  A    between atoms: _61  and  _63
REMARK   26  A    between atoms: _63  and  _64
REMARK   27  A    between atoms: _63  and  _66
REMARK   28  A    between atoms: _66  and  _67
REMARK   29  A    between atoms: _72  and  _74
REMARK   30  A    between atoms: _74  and  _75
REMARK   31  A    between atoms: _74  and  _77
REMARK   32  A    between atoms: _77  and  _78
REMARK   33  A    between atoms: _78  and  _79
REMARK   34  A    between atoms: _81  and  _83
REMARK   35  A    between atoms: _83  and  _84
REMARK   36  A    between atoms: _83  and  _86
REMARK   37  A    between atoms: _86  and  _87
REMARK   38  A    between atoms: _90  and  _92
REMARK   39  A    between atoms: _92  and  _93
REMARK   40  A    between atoms: _92  and  _95
REMARK   41  A    between atoms: _95  and  _96
REMARK   42  A    between atoms: _96  and  _97
REMARK   43  A    between atoms: _97  and  _98
REMARK   44  A    between atoms: _107  and  _109
REMARK   45  A    between atoms: _109  and  _110
REMARK   46  A    between atoms: _109  and  _112
REMARK   47  A    between atoms: _112  and  _113
REMARK   48  A    between atoms: _113  and  _114
REMARK   49  A    between atoms: _114  and  _115
REMARK   50  A    between atoms: _115  and  _116
REMARK   51  A    between atoms: _121  and  _122
REMARK   52  A    between atoms: _127  and  _129
REMARK   53  A    between atoms: _129  and  _130
REMARK   54  A    between atoms: _129  and  _132
REMARK   55  A    between atoms: _135  and  _137
REMARK   56  A    between atoms: _137  and  _138
REMARK   57  A    between atoms: _137  and  _140
REMARK   58  A    between atoms: _140  and  _141
REMARK   59  A    between atoms: _146  and  _148
REMARK   60  A    between atoms: _148  and  _149
REMARK   61  A    between atoms: _148  and  _151
REMARK   62  A    between atoms: _151  and  _152
REMARK   63  A    between atoms: _155  and  _157
REMARK   64  A    between atoms: _157  and  _158
REMARK   65  A    between atoms: _157  and  _160
REMARK   66  A    between atoms: _160  and  _161
REMARK   67  A    between atoms: _167  and  _169
REMARK   68  A    between atoms: _169  and  _170
REMARK   69  A    between atoms: _169  and  _172
REMARK   70  A    between atoms: _175  and  _177
REMARK   71  A    between atoms: _177  and  _178
REMARK   72  A    between atoms: _177  and  _180
REMARK   73  A    between atoms: _180  and  _181
REMARK   74  A    between atoms: _181  and  _182
REMARK   75  A    between atoms: _182  and  _183
REMARK   76  A    between atoms: _183  and  _184
REMARK   77  A    between atoms: _188  and  _190
REMARK   78  A    between atoms: _190  and  _191
REMARK   79  A    between atoms: _190  and  _193
REMARK   80  A    between atoms: _193  and  _194
REMARK   81  A    between atoms: _197  and  _199
REMARK   82  A    between atoms: _199  and  _200
REMARK   83  A    between atoms: _199  and  _202
REMARK   84  A    between atoms: _202  and  _203
REMARK   85  A    between atoms: _206  and  _208
REMARK   86  A    between atoms: _208  and  _209
REMARK   87  A    between atoms: _208  and  _211
REMARK   88  A    between atoms: _211  and  _212
REMARK   89  A    between atoms: _215  and  _217
REMARK   90  A    between atoms: _217  and  _218
REMARK   91  A    between atoms: _217  and  _220
REMARK   92  A    between atoms: _222  and  _224
REMARK   93  A    between atoms: _224  and  _225
REMARK   94  A    between atoms: _224  and  _227
REMARK   95  A    between atoms: _227  and  _228
REMARK   96  A    between atoms: _228  and  _229
REMARK   97  A    between atoms: _229  and  _230
REMARK   98  A    between atoms: _239  and  _241
REMARK   99  A    between atoms: _241  and  _242
REMARK  100  A    between atoms: _241  and  _244
REMARK  101  A    between atoms: _244  and  _245
REMARK  102  A    between atoms: _245  and  _246
REMARK  103  A    between atoms: _246  and  _247
REMARK  104  A    between atoms: _247  and  _248
REMARK  105  A    between atoms: _252  and  _254
REMARK  106  A    between atoms: _254  and  _255
REMARK  107  A    between atoms: _254  and  _257
REMARK  108  A    between atoms: _257  and  _258
REMARK  109  A    between atoms: _261  and  _263
REMARK  110  A    between atoms: _263  and  _264
REMARK  111  A    between atoms: _263  and  _266
REMARK  112  A    between atoms: _266  and  _267
REMARK  113  A    between atoms: _270  and  _272
REMARK  114  A    between atoms: _272  and  _273
REMARK  115  A    between atoms: _272  and  _275
REMARK  116  A    between atoms: _278  and  _280
REMARK  117  A    between atoms: _280  and  _281
REMARK  118  A    between atoms: _284  and  _286
REMARK  119  A    between atoms: _286  and  _287
REMARK  120  A    between atoms: _286  and  _289
REMARK  121  A    between atoms: _292  and  _294
REMARK  122  A    between atoms: _294  and  _295
REMARK  123  A    between atoms: _294  and  _297
REMARK  124  A    between atoms: _297  and  _298
REMARK  125  A    between atoms: _303  and  _305
REMARK  126  A    between atoms: _305  and  _306
REMARK  127  A    between atoms: _305  and  _308
REMARK  128  A    between atoms: _308  and  _309
REMARK  129  A    between atoms: _315  and  _317
REMARK  130  A    between atoms: _317  and  _318
REMARK  131  A    between atoms: _317  and  _320
REMARK  132  A    between atoms: _320  and  _321
REMARK  133  A    between atoms: _324  and  _326
REMARK  134  A    between atoms: _326  and  _327
REMARK  135  A    between atoms: _330  and  _332
REMARK  136  A    between atoms: _332  and  _333
REMARK  137  A    between atoms: _332  and  _335
REMARK  138  A    between atoms: _335  and  _336
REMARK  139  A    between atoms: _338  and  _340
REMARK  140  A    between atoms: _340  and  _341
REMARK  141  A    between atoms: _340  and  _343
REMARK                            x       y       z     vdW  Elec       q    Type
REMARK                         _______ _______ _______ _____ _____    ______ ____
ROOT
ATOM      1  C   PHE A   3      33.364  -0.185  15.521  0.00  0.00    +0.241 C 
ATOM      2  N   ASP A   4      32.944  -0.886  16.569  0.00  0.00    -0.297 N 
ATOM      3  H   ASP A   4      31.960  -0.796  16.894  0.00  0.00    +0.150 HD
ATOM      4  O   PHE A   3      34.501  -0.299  15.061  0.00  0.00    -0.273 OA
ENDROOT
BRANCH   2   5
ATOM      5  CA  ASP A   4      33.858  -1.779  17.262  0.00  0.00    +0.160 C 
BRANCH   5   6
ATOM      6  C   ASP A   4      33.892  -3.205  16.754  0.00  0.00    +0.241 C 
ATOM      7  N   ALA A   5      32.724  -3.803  16.569  0.00  0.00    -0.297 N 
ATOM      8  H   ALA A   5      31.842  -3.283  16.753  0.00  0.00    +0.150 HD
ATOM      9  O   ASP A   4      34.970  -3.761  16.541  0.00  0.00    -0.273 OA
BRANCH   7  10
ATOM     10  CA  ALA A   5      32.667  -5.186  16.109  0.00  0.00    +0.149 C 
ATOM     11  CB  ALA A   5      33.209  -6.110  17.200  0.00  0.00    +0.031 C 
BRANCH  10  12
ATOM     12  C   ALA A   5      31.259  -5.616  15.729  0.00  0.00    +0.241 C 
ATOM     13  O   ALA A   5      30.300  -4.869  15.888  0.00  0.00    -0.273 OA
ATOM     14  N   SER A   6      31.154  -6.833  15.206  0.00  0.00    -0.295 N 
ATOM     15  H   SER A   6      32.019  -7.391  15.055  0.00  0.00    +0.150 HD
BRANCH  14  16
ATOM     16  CA  SER A   6      29.873  -7.412  14.837  0.00  0.00    +0.178 C 
BRANCH  16  17
ATOM     17  C   SER A   6      29.938  -8.821  15.412  0.00  0.00    +0.243 C 
ATOM     18  N   VAL A   7      28.818  -9.314  15.930  0.00  0.00    -0.295 N 
ATOM     19  H   VAL A   7      27.951  -8.739  15.921  0.00  0.00    +0.150 HD
ATOM     20  O   SER A   6      31.004  -9.439  15.410  0.00  0.00    -0.273 OA
BRANCH  18  21
ATOM     21  CA  VAL A   7      28.790 -10.653  16.512  0.00  0.00    +0.176 C 
BRANCH  21  22
ATOM     22  C   VAL A   7      27.500 -11.403  16.187  0.00  0.00    +0.382 C 
ATOM     23  OXT VAL A   7      27.470 -12.629  16.427  0.00  0.00    -0.244 OA
ATOM     24  O   VAL A   7      26.532 -10.764  15.723  0.00  0.00    -0.244 OA
ENDBRANCH  21  22
BRANCH  21  25
ATOM     25  CB  VAL A   7      28.926 -10.602  18.049  0.00  0.00    +0.029 C 
ATOM     26  CG2 VAL A   7      27.690  -9.967  18.651  0.00  0.00    +0.002 C 
ATOM     27  CG1 VAL A   7      30.176  -9.831  18.444  0.00  0.00    +0.002 C 
ENDBRANCH  21  25
ENDBRANCH  18  21
ENDBRANCH  16  17
BRANCH  16  28
ATOM     28  CB  SER A   6      29.706  -7.455  13.311  0.00  0.00    +0.166 C 
BRANCH  28  29
ATOM     29  OG  SER A   6      30.643  -8.333  12.709  0.00  0.00    -0.380 OA
ATOM     30  H   SER A   6      31.561  -8.026  12.915  0.00  0.00    +0.211 HD
ENDBRANCH  28  29
ENDBRANCH  16  28
ENDBRANCH  14  16
ENDBRANCH  10  12
ENDBRANCH   7  10
ENDBRANCH   5   6
BRANCH   5  31
ATOM     31  CB  ASP A   4      33.546  -1.783  18.757  0.00  0.00    +0.143 C 
BRANCH  31  32
ATOM     32  CG  ASP A   4      34.765  -2.107  19.609  0.00  0.00    +0.367 C 
ATOM     33  OD2 ASP A   4      34.662  -2.974  20.503  0.00  0.00    -0.246 OA
ATOM     34  OD1 ASP A   4      35.816  -1.476  19.387  0.00  0.00    -0.246 OA
ENDBRANCH  31  32
ENDBRANCH   5  31
ENDBRANCH   2   5
BRANCH   1  35
ATOM     35  CA  PHE A   3      32.369   0.776  14.881  0.00  0.00    +0.153 C 
BRANCH  35  38
ATOM     36  C   HIS A   2      32.597   2.856  16.101  0.00  0.00    +0.241 C 
ATOM     37  O   HIS A   2      31.721   2.517  16.891  0.00  0.00    -0.273 OA
ATOM     38  N   PHE A   3      32.956   2.099  15.069  0.00  0.00    -0.297 N 
ATOM     39  H   PHE A   3      33.661   2.452  14.390  0.00  0.00    +0.150 HD
BRANCH  36  40
ATOM     40  CA  HIS A   2      33.302   4.205  16.244  0.00  0.00    +0.155 C 
BRANCH  40  42
ATOM     41  C   VAL A   1      32.656   6.547  16.404  0.00  0.00    +0.238 C 
ATOM     42  N   HIS A   2      32.362   5.265  16.595  0.00  0.00    -0.297 N 
ATOM     43  H   HIS A   2      31.440   5.011  17.004  0.00  0.00    +0.150 HD
ATOM     44  O   VAL A   1      33.716   6.918  15.896  0.00  0.00    -0.274 OA
BRANCH  41  45
ATOM     45  CA  VAL A   1      31.593   7.564  16.830  0.00  0.00    +0.145 C 
BRANCH  45  46
ATOM     46  CB  VAL A   1      32.203   8.495  17.915  0.00  0.00    +0.025 C 
ATOM     47  CG2 VAL A   1      32.582   7.681  19.157  0.00  0.00    +0.002 C 
ATOM     48  CG1 VAL A   1      31.211   9.595  18.284  0.00  0.00    +0.002 C 
ENDBRANCH  45  46
BRANCH  45  49
ATOM     49  N   VAL A   1      30.380   6.900  17.309  0.00  0.00    -0.238 NA
ATOM     50  H   VAL A   1      30.465   6.124  17.996  0.00  0.00    +0.142 HD
ENDBRANCH  45  49
ENDBRANCH  41  45
ENDBRANCH  40  42
BRANCH  40  51
ATOM     51  CB  HIS A   2      34.395   4.139  17.330  0.00  0.00    +0.076 C 
BRANCH  51  52
ATOM     52  CG  HIS A   2      35.071   2.807  17.459  0.00  0.00    +0.082 A 
ATOM     53  CD2 HIS A   2      34.924   1.820  18.377  0.00  0.00    +0.115 A 
ATOM     54  NE2 HIS A   2      35.848   0.848  18.081  0.00  0.00    -0.221 NA
ATOM     55  CE1 HIS A   2      36.534   1.219  17.014  0.00  0.00    +0.199 A 
ATOM     56  ND1 HIS A   2      36.082   2.396  16.617  0.00  0.00    -0.227 NA
ENDBRANCH  51  52
ENDBRANCH  40  51
ENDBRANCH  36  40
ENDBRANCH  35  38
BRANCH  35  57
ATOM     57  CB  PHE A   3      32.235   0.437  13.399  0.00  0.00    +0.055 C 
BRANCH  57  58
ATOM     58  CG  PHE A   3      31.479  -0.834  13.151  0.00  0.00    -0.020 A 
ATOM     59  CD2 PHE A   3      32.135  -2.064  13.165  0.00  0.00    -0.004 A 
ATOM     60  CE2 PHE A   3      31.420  -3.257  12.969  0.00  0.00    -0.000 A 
ATOM     61  CZ  PHE A   3      30.043  -3.211  12.759  0.00  0.00    -0.000 A 
ATOM     62  CE1 PHE A   3      29.385  -1.987  12.745  0.00  0.00    -0.000 A 
ATOM     63  CD1 PHE A   3      30.102  -0.808  12.940  0.00  0.00    -0.004 A 
ENDBRANCH  57  58
ENDBRANCH  35  57
ENDBRANCH   1  35
TORSDOF 24
REMARK  Name = ../refined-set-2016/1w4o/1w4o_pocket.pdb
REMARK  141 active torsions:
REMARK  status: ('A' for Active; 'I' for Inactive)
REMARK    1  A    between atoms: _1  and  _3
REMARK    2  A    between atoms: _3  and  _4
REMARK    3  A    between atoms: _7  and  _9
REMARK    4  A    between atoms: _9  and  _10
REMARK    5  A    between atoms: _9  and  _12
REMARK    6  A    between atoms: _12  and  _13
REMARK    7  A    between atoms: _13  and  _14
REMARK    8  A    between atoms: _14  and  _15
REMARK    9  A    between atoms: _15  and  _16
REMARK   10  A    between atoms: _20  and  _22
REMARK   11  A    between atoms: _22  and  _23
REMARK   12  A    between atoms: _22  and  _25
REMARK   13  A    between atoms: _25  and  _26
REMARK   14  A    between atoms: _32  and  _34
REMARK   15  A    between atoms: _34  and  _35
REMARK   16  A    between atoms: _34  and  _37
REMARK   17  A    between atoms: _37  and  _38
REMARK   18  A    between atoms: _38  and  _39
REMARK   19  A    between atoms: _39  and  _40
REMARK   20  A    between atoms: _49  and  _51
REMARK   21  A    between atoms: _51  and  _52
REMARK   22  A    between atoms: _51  and  _54
REMARK   23  A    between atoms: _54  and  _55
REMARK   24  A    between atoms: _55  and  _56
REMARK   25  A    between atoms: _61  and  _63
REMARK   26  A    between atoms: _63  and  _64
REMARK   27  A    between atoms: _63  and  _66
REMARK   28  A    between atoms: _66  and  _67
REMARK   29  A    between atoms: _72  and  _74
REMARK   30  A    between atoms: _74  and  _75
REMARK   31  A    between atoms: _74  and  _77
REMARK   32  A    between atoms: _77  and  _78
REMARK   33  A    between atoms: _78  and  _79
REMARK   34  A    between atoms: _81  and  _83
REMARK   35  A    between atoms: _83  and  _84
REMARK   36  A    between atoms: _83  and  _86
REMARK   37  A    between atoms: _86  and  _87
REMARK   38  A    between atoms: _90  and  _92
REMARK   39  A    between atoms: _92  and  _93
REMARK   40  A    between atoms: _92  and  _95
REMARK   41  A    between atoms: _95  and  _96
REMARK   42  A    between atoms: _96  and  _97
REMARK   43  A    between atoms: _97  and  _98
REMARK   44  A    between atoms: _107  and  _109
REMARK   45  A    between atoms: _109  and  _110
REMARK   46  A    between atoms: _109  and  _112
REMARK   47  A    between atoms: _112  and  _113
REMARK   48  A    between atoms: _113  and  _114
REMARK   49  A    between atoms: _114  and  _115
REMARK   50  A    between atoms: _115  and  _116
REMARK   51  A    between atoms: _121  and  _122
REMARK   52  A    between atoms: _127  and  _129
REMARK   53  A    between atoms: _129  and  _130
REMARK   54  A    between atoms: _129  and  _132
REMARK   55  A    between atoms: _135  and  _137
REMARK   56  A    between atoms: _137  and  _138
REMARK   57  A    between atoms: _137  and  _140
REMARK   58  A    between atoms: _140  and  _141
REMARK   59  A    between atoms: _146  and  _148
REMARK   60  A    between atoms: _148  and  _149
REMARK   61  A    between atoms: _148  and  _151
REMARK   62  A    between atoms: _151  and  _152
REMARK   63  A    between atoms: _155  and  _157
REMARK   64  A    between atoms: _157  and  _158
REMARK   65  A    between atoms: _157  and  _160
REMARK   66  A    between atoms: _160  and  _161
REMARK   67  A    between atoms: _167  and  _169
REMARK   68  A    between atoms: _169  and  _170
REMARK   69  A    between atoms: _169  and  _172
REMARK   70  A    between atoms: _175  and  _177
REMARK   71  A    between atoms: _177  and  _178
REMARK   72  A    between atoms: _177  and  _180
REMARK   73  A    between atoms: _180  and  _181
REMARK   74  A    between atoms: _181  and  _182
REMARK   75  A    between atoms: _182  and  _183
REMARK   76  A    between atoms: _183  and  _184
REMARK   77  A    between atoms: _188  and  _190
REMARK   78  A    between atoms: _190  and  _191
REMARK   79  A    between atoms: _190  and  _193
REMARK   80  A    between atoms: _193  and  _194
REMARK   81  A    between atoms: _197  and  _199
REMARK   82  A    between atoms: _199  and  _200
REMARK   83  A    between atoms: _199  and  _202
REMARK   84  A    between atoms: _202  and  _203
REMARK   85  A    between atoms: _206  and  _208
REMARK   86  A    between atoms: _208  and  _209
REMARK   87  A    between atoms: _208  and  _211
REMARK   88  A    between atoms: _211  and  _212
REMARK   89  A    between atoms: _215  and  _217
REMARK   90  A    between atoms: _217  and  _218
REMARK   91  A    between atoms: _217  and  _220
REMARK   92  A    between atoms: _222  and  _224
REMARK   93  A    between atoms: _224  and  _225
REMARK   94  A    between atoms: _224  and  _227
REMARK   95  A    between atoms: _227  and  _228
REMARK   96  A    between atoms: _228  and  _229
REMARK   97  A    between atoms: _229  and  _230
REMARK   98  A    between atoms: _239  and  _241
REMARK   99  A    between atoms: _241  and  _242
REMARK  100  A    between atoms: _241  and  _244
REMARK  101  A    between atoms: _244  and  _245
REMARK  102  A    between atoms: _245  and  _246
REMARK  103  A    between atoms: _246  and  _247
REMARK  104  A    between atoms: _247  and  _248
REMARK  105  A    between atoms: _252  and  _254
REMARK  106  A    between atoms: _254  and  _255
REMARK  107  A    between atoms: _254  and  _257
REMARK  108  A    between atoms: _257  and  _258
REMARK  109  A    between atoms: _261  and  _263
REMARK  110  A    between atoms: _263  and  _264
REMARK  111  A    between atoms: _263  and  _266
REMARK  112  A    between atoms: _266  and  _267
REMARK  113  A    between atoms: _270  and  _272
REMARK  114  A    between atoms: _272  and  _273
REMARK  115  A    between atoms: _272  and  _275
REMARK  116  A    between atoms: _278  and  _280
REMARK  117  A    between atoms: _280  and  _281
REMARK  118  A    between atoms: _284  and  _286
REMARK  119  A    between atoms: _286  and  _287
REMARK  120  A    between atoms: _286  and  _289
REMARK  121  A    between atoms: _292  and  _294
REMARK  122  A    between atoms: _294  and  _295
REMARK  123  A    between atoms: _294  and  _297
REMARK  124  A    between atoms: _297  and  _298
REMARK  125  A    between atoms: _303  and  _305
REMARK  126  A    between atoms: _305  and  _306
REMARK  127  A    between atoms: _305  and  _308
REMARK  128  A    between atoms: _308  and  _309
REMARK  129  A    between atoms: _315  and  _317
REMARK  130  A    between atoms: _317  and  _318
REMARK  131  A    between atoms: _317  and  _320
REMARK  132  A    between atoms: _320  and  _321
REMARK  133  A    between atoms: _324  and  _326
REMARK  134  A    between atoms: _326  and  _327
REMARK  135  A    between atoms: _330  and  _332
REMARK  136  A    between atoms: _332  and  _333
REMARK  137  A    between atoms: _332  and  _335
REMARK  138  A    between atoms: _335  and  _336
REMARK  139  A    between atoms: _338  and  _340
REMARK  140  A    between atoms: _340  and  _341
REMARK  141  A    between atoms: _340  and  _343
REMARK                            x       y       z     vdW  Elec       q    Type
REMARK                         _______ _______ _______ _____ _____    ______ ____
ROOT
ATOM      1  O   HOH     1      33.794   5.812  12.635  0.00  0.00    +0.000 OA
ENDROOT
TORSDOF 0
REMARK  Name = ../refined-set-2016/1w4o/1w4o_pocket.pdb
REMARK  141 active torsions:
REMARK  status: ('A' for Active; 'I' for Inactive)
REMARK    1  A    between atoms: _1  and  _3
REMARK    2  A    between atoms: _3  and  _4
REMARK    3  A    between atoms: _7  and  _9
REMARK    4  A    between atoms: _9  and  _10
REMARK    5  A    between atoms: _9  and  _12
REMARK    6  A    between atoms: _12  and  _13
REMARK    7  A    between atoms: _13  and  _14
REMARK    8  A    between atoms: _14  and  _15
REMARK    9  A    between atoms: _15  and  _16
REMARK   10  A    between atoms: _20  and  _22
REMARK   11  A    between atoms: _22  and  _23
REMARK   12  A    between atoms: _22  and  _25
REMARK   13  A    between atoms: _25  and  _26
REMARK   14  A    between atoms: _32  and  _34
REMARK   15  A    between atoms: _34  and  _35
REMARK   16  A    between atoms: _34  and  _37
REMARK   17  A    between atoms: _37  and  _38
REMARK   18  A    between atoms: _38  and  _39
REMARK   19  A    between atoms: _39  and  _40
REMARK   20  A    between atoms: _49  and  _51
REMARK   21  A    between atoms: _51  and  _52
REMARK   22  A    between atoms: _51  and  _54
REMARK   23  A    between atoms: _54  and  _55
REMARK   24  A    between atoms: _55  and  _56
REMARK   25  A    between atoms: _61  and  _63
REMARK   26  A    between atoms: _63  and  _64
REMARK   27  A    between atoms: _63  and  _66
REMARK   28  A    between atoms: _66  and  _67
REMARK   29  A    between atoms: _72  and  _74
REMARK   30  A    between atoms: _74  and  _75
REMARK   31  A    between atoms: _74  and  _77
REMARK   32  A    between atoms: _77  and  _78
REMARK   33  A    between atoms: _78  and  _79
REMARK   34  A    between atoms: _81  and  _83
REMARK   35  A    between atoms: _83  and  _84
REMARK   36  A    between atoms: _83  and  _86
REMARK   37  A    between atoms: _86  and  _87
REMARK   38  A    between atoms: _90  and  _92
REMARK   39  A    between atoms: _92  and  _93
REMARK   40  A    between atoms: _92  and  _95
REMARK   41  A    between atoms: _95  and  _96
REMARK   42  A    between atoms: _96  and  _97
REMARK   43  A    between atoms: _97  and  _98
REMARK   44  A    between atoms: _107  and  _109
REMARK   45  A    between atoms: _109  and  _110
REMARK   46  A    between atoms: _109  and  _112
REMARK   47  A    between atoms: _112  and  _113
REMARK   48  A    between atoms: _113  and  _114
REMARK   49  A    between atoms: _114  and  _115
REMARK   50  A    between atoms: _115  and  _116
REMARK   51  A    between atoms: _121  and  _122
REMARK   52  A    between atoms: _127  and  _129
REMARK   53  A    between atoms: _129  and  _130
REMARK   54  A    between atoms: _129  and  _132
REMARK   55  A    between atoms: _135  and  _137
REMARK   56  A    between atoms: _137  and  _138
REMARK   57  A    between atoms: _137  and  _140
REMARK   58  A    between atoms: _140  and  _141
REMARK   59  A    between atoms: _146  and  _148
REMARK   60  A    between atoms: _148  and  _149
REMARK   61  A    between atoms: _148  and  _151
REMARK   62  A    between atoms: _151  and  _152
REMARK   63  A    between atoms: _155  and  _157
REMARK   64  A    between atoms: _157  and  _158
REMARK   65  A    between atoms: _157  and  _160
REMARK   66  A    between atoms: _160  and  _161
REMARK   67  A    between atoms: _167  and  _169
REMARK   68  A    between atoms: _169  and  _170
REMARK   69  A    between atoms: _169  and  _172
REMARK   70  A    between atoms: _175  and  _177
REMARK   71  A    between atoms: _177  and  _178
REMARK   72  A    between atoms: _177  and  _180
REMARK   73  A    between atoms: _180  and  _181
REMARK   74  A    between atoms: _181  and  _182
REMARK   75  A    between atoms: _182  and  _183
REMARK   76  A    between atoms: _183  and  _184
REMARK   77  A    between atoms: _188  and  _190
REMARK   78  A    between atoms: _190  and  _191
REMARK   79  A    between atoms: _190  and  _193
REMARK   80  A    between atoms: _193  and  _194
REMARK   81  A    between atoms: _197  and  _199
REMARK   82  A    between atoms: _199  and  _200
REMARK   83  A    between atoms: _199  and  _202
REMARK   84  A    between atoms: _202  and  _203
REMARK   85  A    between atoms: _206  and  _208
REMARK   86  A    between atoms: _208  and  _209
REMARK   87  A    between atoms: _208  and  _211
REMARK   88  A    between atoms: _211  and  _212
REMARK   89  A    between atoms: _215  and  _217
REMARK   90  A    between atoms: _217  and  _218
REMARK   91  A    between atoms: _217  and  _220
REMARK   92  A    between atoms: _222  and  _224
REMARK   93  A    between atoms: _224  and  _225
REMARK   94  A    between atoms: _224  and  _227
REMARK   95  A    between atoms: _227  and  _228
REMARK   96  A    between atoms: _228  and  _229
REMARK   97  A    between atoms: _229  and  _230
REMARK   98  A    between atoms: _239  and  _241
REMARK   99  A    between atoms: _241  and  _242
REMARK  100  A    between atoms: _241  and  _244
REMARK  101  A    between atoms: _244  and  _245
REMARK  102  A    between atoms: _245  and  _246
REMARK  103  A    between atoms: _246  and  _247
REMARK  104  A    between atoms: _247  and  _248
REMARK  105  A    between atoms: _252  and  _254
REMARK  106  A    between atoms: _254  and  _255
REMARK  107  A    between atoms: _254  and  _257
REMARK  108  A    between atoms: _257  and  _258
REMARK  109  A    between atoms: _261  and  _263
REMARK  110  A    between atoms: _263  and  _264
REMARK  111  A    between atoms: _263  and  _266
REMARK  112  A    between atoms: _266  and  _267
REMARK  113  A    between atoms: _270  and  _272
REMARK  114  A    between atoms: _272  and  _273
REMARK  115  A    between atoms: _272  and  _275
REMARK  116  A    between atoms: _278  and  _280
REMARK  117  A    between atoms: _280  and  _281
REMARK  118  A    between atoms: _284  and  _286
REMARK  119  A    between atoms: _286  and  _287
REMARK  120  A    between atoms: _286  and  _289
REMARK  121  A    between atoms: _292  and  _294
REMARK  122  A    between atoms: _294  and  _295
REMARK  123  A    between atoms: _294  and  _297
REMARK  124  A    between atoms: _297  and  _298
REMARK  125  A    between atoms: _303  and  _305
REMARK  126  A    between atoms: _305  and  _306
REMARK  127  A    between atoms: _305  and  _308
REMARK  128  A    between atoms: _308  and  _309
REMARK  129  A    between atoms: _315  and  _317
REMARK  130  A    between atoms: _317  and  _318
REMARK  131  A    between atoms: _317  and  _320
REMARK  132  A    between atoms: _320  and  _321
REMARK  133  A    between atoms: _324  and  _326
REMARK  134  A    between atoms: _326  and  _327
REMARK  135  A    between atoms: _330  and  _332
REMARK  136  A    between atoms: _332  and  _333
REMARK  137  A    between atoms: _332  and  _335
REMARK  138  A    between atoms: _335  and  _336
REMARK  139  A    between atoms: _338  and  _340
REMARK  140  A    between atoms: _340  and  _341
REMARK  141  A    between atoms: _340  and  _343
REMARK                            x       y       z     vdW  Elec       q    Type
REMARK                         _______ _______ _______ _____ _____    ______ ____
ROOT
ATOM      1  O   HOH     1      41.921   1.187  10.347  0.00  0.00    +0.000 OA
ENDROOT
TORSDOF 0
REMARK  Name = ../refined-set-2016/1w4o/1w4o_pocket.pdb
REMARK  141 active torsions:
REMARK  status: ('A' for Active; 'I' for Inactive)
REMARK    1  A    between atoms: _1  and  _3
REMARK    2  A    between atoms: _3  and  _4
REMARK    3  A    between atoms: _7  and  _9
REMARK    4  A    between atoms: _9  and  _10
REMARK    5  A    between atoms: _9  and  _12
REMARK    6  A    between atoms: _12  and  _13
REMARK    7  A    between atoms: _13  and  _14
REMARK    8  A    between atoms: _14  and  _15
REMARK    9  A    between atoms: _15  and  _16
REMARK   10  A    between atoms: _20  and  _22
REMARK   11  A    between atoms: _22  and  _23
REMARK   12  A    between atoms: _22  and  _25
REMARK   13  A    between atoms: _25  and  _26
REMARK   14  A    between atoms: _32  and  _34
REMARK   15  A    between atoms: _34  and  _35
REMARK   16  A    between atoms: _34  and  _37
REMARK   17  A    between atoms: _37  and  _38
REMARK   18  A    between atoms: _38  and  _39
REMARK   19  A    between atoms: _39  and  _40
REMARK   20  A    between atoms: _49  and  _51
REMARK   21  A    between atoms: _51  and  _52
REMARK   22  A    between atoms: _51  and  _54
REMARK   23  A    between atoms: _54  and  _55
REMARK   24  A    between atoms: _55  and  _56
REMARK   25  A    between atoms: _61  and  _63
REMARK   26  A    between atoms: _63  and  _64
REMARK   27  A    between atoms: _63  and  _66
REMARK   28  A    between atoms: _66  and  _67
REMARK   29  A    between atoms: _72  and  _74
REMARK   30  A    between atoms: _74  and  _75
REMARK   31  A    between atoms: _74  and  _77
REMARK   32  A    between atoms: _77  and  _78
REMARK   33  A    between atoms: _78  and  _79
REMARK   34  A    between atoms: _81  and  _83
REMARK   35  A    between atoms: _83  and  _84
REMARK   36  A    between atoms: _83  and  _86
REMARK   37  A    between atoms: _86  and  _87
REMARK   38  A    between atoms: _90  and  _92
REMARK   39  A    between atoms: _92  and  _93
REMARK   40  A    between atoms: _92  and  _95
REMARK   41  A    between atoms: _95  and  _96
REMARK   42  A    between atoms: _96  and  _97
REMARK   43  A    between atoms: _97  and  _98
REMARK   44  A    between atoms: _107  and  _109
REMARK   45  A    between atoms: _109  and  _110
REMARK   46  A    between atoms: _109  and  _112
REMARK   47  A    between atoms: _112  and  _113
REMARK   48  A    between atoms: _113  and  _114
REMARK   49  A    between atoms: _114  and  _115
REMARK   50  A    between atoms: _115  and  _116
REMARK   51  A    between atoms: _121  and  _122
REMARK   52  A    between atoms: _127  and  _129
REMARK   53  A    between atoms: _129  and  _130
REMARK   54  A    between atoms: _129  and  _132
REMARK   55  A    between atoms: _135  and  _137
REMARK   56  A    between atoms: _137  and  _138
REMARK   57  A    between atoms: _137  and  _140
REMARK   58  A    between atoms: _140  and  _141
REMARK   59  A    between atoms: _146  and  _148
REMARK   60  A    between atoms: _148  and  _149
REMARK   61  A    between atoms: _148  and  _151
REMARK   62  A    between atoms: _151  and  _152
REMARK   63  A    between atoms: _155  and  _157
REMARK   64  A    between atoms: _157  and  _158
REMARK   65  A    between atoms: _157  and  _160
REMARK   66  A    between atoms: _160  and  _161
REMARK   67  A    between atoms: _167  and  _169
REMARK   68  A    between atoms: _169  and  _170
REMARK   69  A    between atoms: _169  and  _172
REMARK   70  A    between atoms: _175  and  _177
REMARK   71  A    between atoms: _177  and  _178
REMARK   72  A    between atoms: _177  and  _180
REMARK   73  A    between atoms: _180  and  _181
REMARK   74  A    between atoms: _181  and  _182
REMARK   75  A    between atoms: _182  and  _183
REMARK   76  A    between atoms: _183  and  _184
REMARK   77  A    between atoms: _188  and  _190
REMARK   78  A    between atoms: _190  and  _191
REMARK   79  A    between atoms: _190  and  _193
REMARK   80  A    between atoms: _193  and  _194
REMARK   81  A    between atoms: _197  and  _199
REMARK   82  A    between atoms: _199  and  _200
REMARK   83  A    between atoms: _199  and  _202
REMARK   84  A    between atoms: _202  and  _203
REMARK   85  A    between atoms: _206  and  _208
REMARK   86  A    between atoms: _208  and  _209
REMARK   87  A    between atoms: _208  and  _211
REMARK   88  A    between atoms: _211  and  _212
REMARK   89  A    between atoms: _215  and  _217
REMARK   90  A    between atoms: _217  and  _218
REMARK   91  A    between atoms: _217  and  _220
REMARK   92  A    between atoms: _222  and  _224
REMARK   93  A    between atoms: _224  and  _225
REMARK   94  A    between atoms: _224  and  _227
REMARK   95  A    between atoms: _227  and  _228
REMARK   96  A    between atoms: _228  and  _229
REMARK   97  A    between atoms: _229  and  _230
REMARK   98  A    between atoms: _239  and  _241
REMARK   99  A    between atoms: _241  and  _242
REMARK  100  A    between atoms: _241  and  _244
REMARK  101  A    between atoms: _244  and  _245
REMARK  102  A    between atoms: _245  and  _246
REMARK  103  A    between atoms: _246  and  _247
REMARK  104  A    between atoms: _247  and  _248
REMARK  105  A    between atoms: _252  and  _254
REMARK  106  A    between atoms: _254  and  _255
REMARK  107  A    between atoms: _254  and  _257
REMARK  108  A    between atoms: _257  and  _258
REMARK  109  A    between atoms: _261  and  _263
REMARK  110  A    between atoms: _263  and  _264
REMARK  111  A    between atoms: _263  and  _266
REMARK  112  A    between atoms: _266  and  _267
REMARK  113  A    between atoms: _270  and  _272
REMARK  114  A    between atoms: _272  and  _273
REMARK  115  A    between atoms: _272  and  _275
REMARK  116  A    between atoms: _278  and  _280
REMARK  117  A    between atoms: _280  and  _281
REMARK  118  A    between atoms: _284  and  _286
REMARK  119  A    between atoms: _286  and  _287
REMARK  120  A    between atoms: _286  and  _289
REMARK  121  A    between atoms: _292  and  _294
REMARK  122  A    between atoms: _294  and  _295
REMARK  123  A    between atoms: _294  and  _297
REMARK  124  A    between atoms: _297  and  _298
REMARK  125  A    between atoms: _303  and  _305
REMARK  126  A    between atoms: _305  and  _306
REMARK  127  A    between atoms: _305  and  _308
REMARK  128  A    between atoms: _308  and  _309
REMARK  129  A    between atoms: _315  and  _317
REMARK  130  A    between atoms: _317  and  _318
REMARK  131  A    between atoms: _317  and  _320
REMARK  132  A    between atoms: _320  and  _321
REMARK  133  A    between atoms: _324  and  _326
REMARK  134  A    between atoms: _326  and  _327
REMARK  135  A    between atoms: _330  and  _332
REMARK  136  A    between atoms: _332  and  _333
REMARK  137  A    between atoms: _332  and  _335
REMARK  138  A    between atoms: _335  and  _336
REMARK  139  A    between atoms: _338  and  _340
REMARK  140  A    between atoms: _340  and  _341
REMARK  141  A    between atoms: _340  and  _343
REMARK                            x       y       z     vdW  Elec       q    Type
REMARK                         _______ _______ _______ _____ _____    ______ ____
ROOT
ATOM      1  O   HOH     1      40.831  -0.991   9.468  0.00  0.00    +0.000 OA
ENDROOT
TORSDOF 0
REMARK  Name = ../refined-set-2016/1w4o/1w4o_pocket.pdb
REMARK  141 active torsions:
REMARK  status: ('A' for Active; 'I' for Inactive)
REMARK    1  A    between atoms: _1  and  _3
REMARK    2  A    between atoms: _3  and  _4
REMARK    3  A    between atoms: _7  and  _9
REMARK    4  A    between atoms: _9  and  _10
REMARK    5  A    between atoms: _9  and  _12
REMARK    6  A    between atoms: _12  and  _13
REMARK    7  A    between atoms: _13  and  _14
REMARK    8  A    between atoms: _14  and  _15
REMARK    9  A    between atoms: _15  and  _16
REMARK   10  A    between atoms: _20  and  _22
REMARK   11  A    between atoms: _22  and  _23
REMARK   12  A    between atoms: _22  and  _25
REMARK   13  A    between atoms: _25  and  _26
REMARK   14  A    between atoms: _32  and  _34
REMARK   15  A    between atoms: _34  and  _35
REMARK   16  A    between atoms: _34  and  _37
REMARK   17  A    between atoms: _37  and  _38
REMARK   18  A    between atoms: _38  and  _39
REMARK   19  A    between atoms: _39  and  _40
REMARK   20  A    between atoms: _49  and  _51
REMARK   21  A    between atoms: _51  and  _52
REMARK   22  A    between atoms: _51  and  _54
REMARK   23  A    between atoms: _54  and  _55
REMARK   24  A    between atoms: _55  and  _56
REMARK   25  A    between atoms: _61  and  _63
REMARK   26  A    between atoms: _63  and  _64
REMARK   27  A    between atoms: _63  and  _66
REMARK   28  A    between atoms: _66  and  _67
REMARK   29  A    between atoms: _72  and  _74
REMARK   30  A    between atoms: _74  and  _75
REMARK   31  A    between atoms: _74  and  _77
REMARK   32  A    between atoms: _77  and  _78
REMARK   33  A    between atoms: _78  and  _79
REMARK   34  A    between atoms: _81  and  _83
REMARK   35  A    between atoms: _83  and  _84
REMARK   36  A    between atoms: _83  and  _86
REMARK   37  A    between atoms: _86  and  _87
REMARK   38  A    between atoms: _90  and  _92
REMARK   39  A    between atoms: _92  and  _93
REMARK   40  A    between atoms: _92  and  _95
REMARK   41  A    between atoms: _95  and  _96
REMARK   42  A    between atoms: _96  and  _97
REMARK   43  A    between atoms: _97  and  _98
REMARK   44  A    between atoms: _107  and  _109
REMARK   45  A    between atoms: _109  and  _110
REMARK   46  A    between atoms: _109  and  _112
REMARK   47  A    between atoms: _112  and  _113
REMARK   48  A    between atoms: _113  and  _114
REMARK   49  A    between atoms: _114  and  _115
REMARK   50  A    between atoms: _115  and  _116
REMARK   51  A    between atoms: _121  and  _122
REMARK   52  A    between atoms: _127  and  _129
REMARK   53  A    between atoms: _129  and  _130
REMARK   54  A    between atoms: _129  and  _132
REMARK   55  A    between atoms: _135  and  _137
REMARK   56  A    between atoms: _137  and  _138
REMARK   57  A    between atoms: _137  and  _140
REMARK   58  A    between atoms: _140  and  _141
REMARK   59  A    between atoms: _146  and  _148
REMARK   60  A    between atoms: _148  and  _149
REMARK   61  A    between atoms: _148  and  _151
REMARK   62  A    between atoms: _151  and  _152
REMARK   63  A    between atoms: _155  and  _157
REMARK   64  A    between atoms: _157  and  _158
REMARK   65  A    between atoms: _157  and  _160
REMARK   66  A    between atoms: _160  and  _161
REMARK   67  A    between atoms: _167  and  _169
REMARK   68  A    between atoms: _169  and  _170
REMARK   69  A    between atoms: _169  and  _172
REMARK   70  A    between atoms: _175  and  _177
REMARK   71  A    between atoms: _177  and  _178
REMARK   72  A    between atoms: _177  and  _180
REMARK   73  A    between atoms: _180  and  _181
REMARK   74  A    between atoms: _181  and  _182
REMARK   75  A    between atoms: _182  and  _183
REMARK   76  A    between atoms: _183  and  _184
REMARK   77  A    between atoms: _188  and  _190
REMARK   78  A    between atoms: _190  and  _191
REMARK   79  A    between atoms: _190  and  _193
REMARK   80  A    between atoms: _193  and  _194
REMARK   81  A    between atoms: _197  and  _199
REMARK   82  A    between atoms: _199  and  _200
REMARK   83  A    between atoms: _199  and  _202
REMARK   84  A    between atoms: _202  and  _203
REMARK   85  A    between atoms: _206  and  _208
REMARK   86  A    between atoms: _208  and  _209
REMARK   87  A    between atoms: _208  and  _211
REMARK   88  A    between atoms: _211  and  _212
REMARK   89  A    between atoms: _215  and  _217
REMARK   90  A    between atoms: _217  and  _218
REMARK   91  A    between atoms: _217  and  _220
REMARK   92  A    between atoms: _222  and  _224
REMARK   93  A    between atoms: _224  and  _225
REMARK   94  A    between atoms: _224  and  _227
REMARK   95  A    between atoms: _227  and  _228
REMARK   96  A    between atoms: _228  and  _229
REMARK   97  A    between atoms: _229  and  _230
REMARK   98  A    between atoms: _239  and  _241
REMARK   99  A    between atoms: _241  and  _242
REMARK  100  A    between atoms: _241  and  _244
REMARK  101  A    between atoms: _244  and  _245
REMARK  102  A    between atoms: _245  and  _246
REMARK  103  A    between atoms: _246  and  _247
REMARK  104  A    between atoms: _247  and  _248
REMARK  105  A    between atoms: _252  and  _254
REMARK  106  A    between atoms: _254  and  _255
REMARK  107  A    between atoms: _254  and  _257
REMARK  108  A    between atoms: _257  and  _258
REMARK  109  A    between atoms: _261  and  _263
REMARK  110  A    between atoms: _263  and  _264
REMARK  111  A    between atoms: _263  and  _266
REMARK  112  A    between atoms: _266  and  _267
REMARK  113  A    between atoms: _270  and  _272
REMARK  114  A    between atoms: _272  and  _273
REMARK  115  A    between atoms: _272  and  _275
REMARK  116  A    between atoms: _278  and  _280
REMARK  117  A    between atoms: _280  and  _281
REMARK  118  A    between atoms: _284  and  _286
REMARK  119  A    between atoms: _286  and  _287
REMARK  120  A    between atoms: _286  and  _289
REMARK  121  A    between atoms: _292  and  _294
REMARK  122  A    between atoms: _294  and  _295
REMARK  123  A    between atoms: _294  and  _297
REMARK  124  A    between atoms: _297  and  _298
REMARK  125  A    between atoms: _303  and  _305
REMARK  126  A    between atoms: _305  and  _306
REMARK  127  A    between atoms: _305  and  _308
REMARK  128  A    between atoms: _308  and  _309
REMARK  129  A    between atoms: _315  and  _317
REMARK  130  A    between atoms: _317  and  _318
REMARK  131  A    between atoms: _317  and  _320
REMARK  132  A    between atoms: _320  and  _321
REMARK  133  A    between atoms: _324  and  _326
REMARK  134  A    between atoms: _326  and  _327
REMARK  135  A    between atoms: _330  and  _332
REMARK  136  A    between atoms: _332  and  _333
REMARK  137  A    between atoms: _332  and  _335
REMARK  138  A    between atoms: _335  and  _336
REMARK  139  A    between atoms: _338  and  _340
REMARK  140  A    between atoms: _340  and  _341
REMARK  141  A    between atoms: _340  and  _343
REMARK                            x       y       z     vdW  Elec       q    Type
REMARK                         _______ _______ _______ _____ _____    ______ ____
ROOT
ATOM      1  O   HOH     1      36.429   2.283  21.053  0.00  0.00    +0.000 OA
ENDROOT
TORSDOF 0
REMARK  Name = ../refined-set-2016/1w4o/1w4o_pocket.pdb
REMARK  141 active torsions:
REMARK  status: ('A' for Active; 'I' for Inactive)
REMARK    1  A    between atoms: _1  and  _3
REMARK    2  A    between atoms: _3  and  _4
REMARK    3  A    between atoms: _7  and  _9
REMARK    4  A    between atoms: _9  and  _10
REMARK    5  A    between atoms: _9  and  _12
REMARK    6  A    between atoms: _12  and  _13
REMARK    7  A    between atoms: _13  and  _14
REMARK    8  A    between atoms: _14  and  _15
REMARK    9  A    between atoms: _15  and  _16
REMARK   10  A    between atoms: _20  and  _22
REMARK   11  A    between atoms: _22  and  _23
REMARK   12  A    between atoms: _22  and  _25
REMARK   13  A    between atoms: _25  and  _26
REMARK   14  A    between atoms: _32  and  _34
REMARK   15  A    between atoms: _34  and  _35
REMARK   16  A    between atoms: _34  and  _37
REMARK   17  A    between atoms: _37  and  _38
REMARK   18  A    between atoms: _38  and  _39
REMARK   19  A    between atoms: _39  and  _40
REMARK   20  A    between atoms: _49  and  _51
REMARK   21  A    between atoms: _51  and  _52
REMARK   22  A    between atoms: _51  and  _54
REMARK   23  A    between atoms: _54  and  _55
REMARK   24  A    between atoms: _55  and  _56
REMARK   25  A    between atoms: _61  and  _63
REMARK   26  A    between atoms: _63  and  _64
REMARK   27  A    between atoms: _63  and  _66
REMARK   28  A    between atoms: _66  and  _67
REMARK   29  A    between atoms: _72  and  _74
REMARK   30  A    between atoms: _74  and  _75
REMARK   31  A    between atoms: _74  and  _77
REMARK   32  A    between atoms: _77  and  _78
REMARK   33  A    between atoms: _78  and  _79
REMARK   34  A    between atoms: _81  and  _83
REMARK   35  A    between atoms: _83  and  _84
REMARK   36  A    between atoms: _83  and  _86
REMARK   37  A    between atoms: _86  and  _87
REMARK   38  A    between atoms: _90  and  _92
REMARK   39  A    between atoms: _92  and  _93
REMARK   40  A    between atoms: _92  and  _95
REMARK   41  A    between atoms: _95  and  _96
REMARK   42  A    between atoms: _96  and  _97
REMARK   43  A    between atoms: _97  and  _98
REMARK   44  A    between atoms: _107  and  _109
REMARK   45  A    between atoms: _109  and  _110
REMARK   46  A    between atoms: _109  and  _112
REMARK   47  A    between atoms: _112  and  _113
REMARK   48  A    between atoms: _113  and  _114
REMARK   49  A    between atoms: _114  and  _115
REMARK   50  A    between atoms: _115  and  _116
REMARK   51  A    between atoms: _121  and  _122
REMARK   52  A    between atoms: _127  and  _129
REMARK   53  A    between atoms: _129  and  _130
REMARK   54  A    between atoms: _129  and  _132
REMARK   55  A    between atoms: _135  and  _137
REMARK   56  A    between atoms: _137  and  _138
REMARK   57  A    between atoms: _137  and  _140
REMARK   58  A    between atoms: _140  and  _141
REMARK   59  A    between atoms: _146  and  _148
REMARK   60  A    between atoms: _148  and  _149
REMARK   61  A    between atoms: _148  and  _151
REMARK   62  A    between atoms: _151  and  _152
REMARK   63  A    between atoms: _155  and  _157
REMARK   64  A    between atoms: _157  and  _158
REMARK   65  A    between atoms: _157  and  _160
REMARK   66  A    between atoms: _160  and  _161
REMARK   67  A    between atoms: _167  and  _169
REMARK   68  A    between atoms: _169  and  _170
REMARK   69  A    between atoms: _169  and  _172
REMARK   70  A    between atoms: _175  and  _177
REMARK   71  A    between atoms: _177  and  _178
REMARK   72  A    between atoms: _177  and  _180
REMARK   73  A    between atoms: _180  and  _181
REMARK   74  A    between atoms: _181  and  _182
REMARK   75  A    between atoms: _182  and  _183
REMARK   76  A    between atoms: _183  and  _184
REMARK   77  A    between atoms: _188  and  _190
REMARK   78  A    between atoms: _190  and  _191
REMARK   79  A    between atoms: _190  and  _193
REMARK   80  A    between atoms: _193  and  _194
REMARK   81  A    between atoms: _197  and  _199
REMARK   82  A    between atoms: _199  and  _200
REMARK   83  A    between atoms: _199  and  _202
REMARK   84  A    between atoms: _202  and  _203
REMARK   85  A    between atoms: _206  and  _208
REMARK   86  A    between atoms: _208  and  _209
REMARK   87  A    between atoms: _208  and  _211
REMARK   88  A    between atoms: _211  and  _212
REMARK   89  A    between atoms: _215  and  _217
REMARK   90  A    between atoms: _217  and  _218
REMARK   91  A    between atoms: _217  and  _220
REMARK   92  A    between atoms: _222  and  _224
REMARK   93  A    between atoms: _224  and  _225
REMARK   94  A    between atoms: _224  and  _227
REMARK   95  A    between atoms: _227  and  _228
REMARK   96  A    between atoms: _228  and  _229
REMARK   97  A    between atoms: _229  and  _230
REMARK   98  A    between atoms: _239  and  _241
REMARK   99  A    between atoms: _241  and  _242
REMARK  100  A    between atoms: _241  and  _244
REMARK  101  A    between atoms: _244  and  _245
REMARK  102  A    between atoms: _245  and  _246
REMARK  103  A    between atoms: _246  and  _247
REMARK  104  A    between atoms: _247  and  _248
REMARK  105  A    between atoms: _252  and  _254
REMARK  106  A    between atoms: _254  and  _255
REMARK  107  A    between atoms: _254  and  _257
REMARK  108  A    between atoms: _257  and  _258
REMARK  109  A    between atoms: _261  and  _263
REMARK  110  A    between atoms: _263  and  _264
REMARK  111  A    between atoms: _263  and  _266
REMARK  112  A    between atoms: _266  and  _267
REMARK  113  A    between atoms: _270  and  _272
REMARK  114  A    between atoms: _272  and  _273
REMARK  115  A    between atoms: _272  and  _275
REMARK  116  A    between atoms: _278  and  _280
REMARK  117  A    between atoms: _280  and  _281
REMARK  118  A    between atoms: _284  and  _286
REMARK  119  A    between atoms: _286  and  _287
REMARK  120  A    between atoms: _286  and  _289
REMARK  121  A    between atoms: _292  and  _294
REMARK  122  A    between atoms: _294  and  _295
REMARK  123  A    between atoms: _294  and  _297
REMARK  124  A    between atoms: _297  and  _298
REMARK  125  A    between atoms: _303  and  _305
REMARK  126  A    between atoms: _305  and  _306
REMARK  127  A    between atoms: _305  and  _308
REMARK  128  A    between atoms: _308  and  _309
REMARK  129  A    between atoms: _315  and  _317
REMARK  130  A    between atoms: _317  and  _318
REMARK  131  A    between atoms: _317  and  _320
REMARK  132  A    between atoms: _320  and  _321
REMARK  133  A    between atoms: _324  and  _326
REMARK  134  A    between atoms: _326  and  _327
REMARK  135  A    between atoms: _330  and  _332
REMARK  136  A    between atoms: _332  and  _333
REMARK  137  A    between atoms: _332  and  _335
REMARK  138  A    between atoms: _335  and  _336
REMARK  139  A    between atoms: _338  and  _340
REMARK  140  A    between atoms: _340  and  _341
REMARK  141  A    between atoms: _340  and  _343
REMARK                            x       y       z     vdW  Elec       q    Type
REMARK                         _______ _______ _______ _____ _____    ______ ____
ROOT
ATOM      1  O   HOH     1      34.238   8.577  14.014  0.00  0.00    +0.000 OA
ENDROOT
TORSDOF 0
REMARK  Name = ../refined-set-2016/1w4o/1w4o_pocket.pdb
REMARK  141 active torsions:
REMARK  status: ('A' for Active; 'I' for Inactive)
REMARK    1  A    between atoms: _1  and  _3
REMARK    2  A    between atoms: _3  and  _4
REMARK    3  A    between atoms: _7  and  _9
REMARK    4  A    between atoms: _9  and  _10
REMARK    5  A    between atoms: _9  and  _12
REMARK    6  A    between atoms: _12  and  _13
REMARK    7  A    between atoms: _13  and  _14
REMARK    8  A    between atoms: _14  and  _15
REMARK    9  A    between atoms: _15  and  _16
REMARK   10  A    between atoms: _20  and  _22
REMARK   11  A    between atoms: _22  and  _23
REMARK   12  A    between atoms: _22  and  _25
REMARK   13  A    between atoms: _25  and  _26
REMARK   14  A    between atoms: _32  and  _34
REMARK   15  A    between atoms: _34  and  _35
REMARK   16  A    between atoms: _34  and  _37
REMARK   17  A    between atoms: _37  and  _38
REMARK   18  A    between atoms: _38  and  _39
REMARK   19  A    between atoms: _39  and  _40
REMARK   20  A    between atoms: _49  and  _51
REMARK   21  A    between atoms: _51  and  _52
REMARK   22  A    between atoms: _51  and  _54
REMARK   23  A    between atoms: _54  and  _55
REMARK   24  A    between atoms: _55  and  _56
REMARK   25  A    between atoms: _61  and  _63
REMARK   26  A    between atoms: _63  and  _64
REMARK   27  A    between atoms: _63  and  _66
REMARK   28  A    between atoms: _66  and  _67
REMARK   29  A    between atoms: _72  and  _74
REMARK   30  A    between atoms: _74  and  _75
REMARK   31  A    between atoms: _74  and  _77
REMARK   32  A    between atoms: _77  and  _78
REMARK   33  A    between atoms: _78  and  _79
REMARK   34  A    between atoms: _81  and  _83
REMARK   35  A    between atoms: _83  and  _84
REMARK   36  A    between atoms: _83  and  _86
REMARK   37  A    between atoms: _86  and  _87
REMARK   38  A    between atoms: _90  and  _92
REMARK   39  A    between atoms: _92  and  _93
REMARK   40  A    between atoms: _92  and  _95
REMARK   41  A    between atoms: _95  and  _96
REMARK   42  A    between atoms: _96  and  _97
REMARK   43  A    between atoms: _97  and  _98
REMARK   44  A    between atoms: _107  and  _109
REMARK   45  A    between atoms: _109  and  _110
REMARK   46  A    between atoms: _109  and  _112
REMARK   47  A    between atoms: _112  and  _113
REMARK   48  A    between atoms: _113  and  _114
REMARK   49  A    between atoms: _114  and  _115
REMARK   50  A    between atoms: _115  and  _116
REMARK   51  A    between atoms: _121  and  _122
REMARK   52  A    between atoms: _127  and  _129
REMARK   53  A    between atoms: _129  and  _130
REMARK   54  A    between atoms: _129  and  _132
REMARK   55  A    between atoms: _135  and  _137
REMARK   56  A    between atoms: _137  and  _138
REMARK   57  A    between atoms: _137  and  _140
REMARK   58  A    between atoms: _140  and  _141
REMARK   59  A    between atoms: _146  and  _148
REMARK   60  A    between atoms: _148  and  _149
REMARK   61  A    between atoms: _148  and  _151
REMARK   62  A    between atoms: _151  and  _152
REMARK   63  A    between atoms: _155  and  _157
REMARK   64  A    between atoms: _157  and  _158
REMARK   65  A    between atoms: _157  and  _160
REMARK   66  A    between atoms: _160  and  _161
REMARK   67  A    between atoms: _167  and  _169
REMARK   68  A    between atoms: _169  and  _170
REMARK   69  A    between atoms: _169  and  _172
REMARK   70  A    between atoms: _175  and  _177
REMARK   71  A    between atoms: _177  and  _178
REMARK   72  A    between atoms: _177  and  _180
REMARK   73  A    between atoms: _180  and  _181
REMARK   74  A    between atoms: _181  and  _182
REMARK   75  A    between atoms: _182  and  _183
REMARK   76  A    between atoms: _183  and  _184
REMARK   77  A    between atoms: _188  and  _190
REMARK   78  A    between atoms: _190  and  _191
REMARK   79  A    between atoms: _190  and  _193
REMARK   80  A    between atoms: _193  and  _194
REMARK   81  A    between atoms: _197  and  _199
REMARK   82  A    between atoms: _199  and  _200
REMARK   83  A    between atoms: _199  and  _202
REMARK   84  A    between atoms: _202  and  _203
REMARK   85  A    between atoms: _206  and  _208
REMARK   86  A    between atoms: _208  and  _209
REMARK   87  A    between atoms: _208  and  _211
REMARK   88  A    between atoms: _211  and  _212
REMARK   89  A    between atoms: _215  and  _217
REMARK   90  A    between atoms: _217  and  _218
REMARK   91  A    between atoms: _217  and  _220
REMARK   92  A    between atoms: _222  and  _224
REMARK   93  A    between atoms: _224  and  _225
REMARK   94  A    between atoms: _224  and  _227
REMARK   95  A    between atoms: _227  and  _228
REMARK   96  A    between atoms: _228  and  _229
REMARK   97  A    between atoms: _229  and  _230
REMARK   98  A    between atoms: _239  and  _241
REMARK   99  A    between atoms: _241  and  _242
REMARK  100  A    between atoms: _241  and  _244
REMARK  101  A    between atoms: _244  and  _245
REMARK  102  A    between atoms: _245  and  _246
REMARK  103  A    between atoms: _246  and  _247
REMARK  104  A    between atoms: _247  and  _248
REMARK  105  A    between atoms: _252  and  _254
REMARK  106  A    between atoms: _254  and  _255
REMARK  107  A    between atoms: _254  and  _257
REMARK  108  A    between atoms: _257  and  _258
REMARK  109  A    between atoms: _261  and  _263
REMARK  110  A    between atoms: _263  and  _264
REMARK  111  A    between atoms: _263  and  _266
REMARK  112  A    between atoms: _266  and  _267
REMARK  113  A    between atoms: _270  and  _272
REMARK  114  A    between atoms: _272  and  _273
REMARK  115  A    between atoms: _272  and  _275
REMARK  116  A    between atoms: _278  and  _280
REMARK  117  A    between atoms: _280  and  _281
REMARK  118  A    between atoms: _284  and  _286
REMARK  119  A    between atoms: _286  and  _287
REMARK  120  A    between atoms: _286  and  _289
REMARK  121  A    between atoms: _292  and  _294
REMARK  122  A    between atoms: _294  and  _295
REMARK  123  A    between atoms: _294  and  _297
REMARK  124  A    between atoms: _297  and  _298
REMARK  125  A    between atoms: _303  and  _305
REMARK  126  A    between atoms: _305  and  _306
REMARK  127  A    between atoms: _305  and  _308
REMARK  128  A    between atoms: _308  and  _309
REMARK  129  A    between atoms: _315  and  _317
REMARK  130  A    between atoms: _317  and  _318
REMARK  131  A    between atoms: _317  and  _320
REMARK  132  A    between atoms: _320  and  _321
REMARK  133  A    between atoms: _324  and  _326
REMARK  134  A    between atoms: _326  and  _327
REMARK  135  A    between atoms: _330  and  _332
REMARK  136  A    between atoms: _332  and  _333
REMARK  137  A    between atoms: _332  and  _335
REMARK  138  A    between atoms: _335  and  _336
REMARK  139  A    between atoms: _338  and  _340
REMARK  140  A    between atoms: _340  and  _341
REMARK  141  A    between atoms: _340  and  _343
REMARK                            x       y       z     vdW  Elec       q    Type
REMARK                         _______ _______ _______ _____ _____    ______ ____
ROOT
ATOM      1  O   HOH     1      37.664  -0.627  21.160  0.00  0.00    +0.000 OA
ENDROOT
TORSDOF 0
REMARK  Name = ../refined-set-2016/1w4o/1w4o_pocket.pdb
REMARK  141 active torsions:
REMARK  status: ('A' for Active; 'I' for Inactive)
REMARK    1  A    between atoms: _1  and  _3
REMARK    2  A    between atoms: _3  and  _4
REMARK    3  A    between atoms: _7  and  _9
REMARK    4  A    between atoms: _9  and  _10
REMARK    5  A    between atoms: _9  and  _12
REMARK    6  A    between atoms: _12  and  _13
REMARK    7  A    between atoms: _13  and  _14
REMARK    8  A    between atoms: _14  and  _15
REMARK    9  A    between atoms: _15  and  _16
REMARK   10  A    between atoms: _20  and  _22
REMARK   11  A    between atoms: _22  and  _23
REMARK   12  A    between atoms: _22  and  _25
REMARK   13  A    between atoms: _25  and  _26
REMARK   14  A    between atoms: _32  and  _34
REMARK   15  A    between atoms: _34  and  _35
REMARK   16  A    between atoms: _34  and  _37
REMARK   17  A    between atoms: _37  and  _38
REMARK   18  A    between atoms: _38  and  _39
REMARK   19  A    between atoms: _39  and  _40
REMARK   20  A    between atoms: _49  and  _51
REMARK   21  A    between atoms: _51  and  _52
REMARK   22  A    between atoms: _51  and  _54
REMARK   23  A    between atoms: _54  and  _55
REMARK   24  A    between atoms: _55  and  _56
REMARK   25  A    between atoms: _61  and  _63
REMARK   26  A    between atoms: _63  and  _64
REMARK   27  A    between atoms: _63  and  _66
REMARK   28  A    between atoms: _66  and  _67
REMARK   29  A    between atoms: _72  and  _74
REMARK   30  A    between atoms: _74  and  _75
REMARK   31  A    between atoms: _74  and  _77
REMARK   32  A    between atoms: _77  and  _78
REMARK   33  A    between atoms: _78  and  _79
REMARK   34  A    between atoms: _81  and  _83
REMARK   35  A    between atoms: _83  and  _84
REMARK   36  A    between atoms: _83  and  _86
REMARK   37  A    between atoms: _86  and  _87
REMARK   38  A    between atoms: _90  and  _92
REMARK   39  A    between atoms: _92  and  _93
REMARK   40  A    between atoms: _92  and  _95
REMARK   41  A    between atoms: _95  and  _96
REMARK   42  A    between atoms: _96  and  _97
REMARK   43  A    between atoms: _97  and  _98
REMARK   44  A    between atoms: _107  and  _109
REMARK   45  A    between atoms: _109  and  _110
REMARK   46  A    between atoms: _109  and  _112
REMARK   47  A    between atoms: _112  and  _113
REMARK   48  A    between atoms: _113  and  _114
REMARK   49  A    between atoms: _114  and  _115
REMARK   50  A    between atoms: _115  and  _116
REMARK   51  A    between atoms: _121  and  _122
REMARK   52  A    between atoms: _127  and  _129
REMARK   53  A    between atoms: _129  and  _130
REMARK   54  A    between atoms: _129  and  _132
REMARK   55  A    between atoms: _135  and  _137
REMARK   56  A    between atoms: _137  and  _138
REMARK   57  A    between atoms: _137  and  _140
REMARK   58  A    between atoms: _140  and  _141
REMARK   59  A    between atoms: _146  and  _148
REMARK   60  A    between atoms: _148  and  _149
REMARK   61  A    between atoms: _148  and  _151
REMARK   62  A    between atoms: _151  and  _152
REMARK   63  A    between atoms: _155  and  _157
REMARK   64  A    between atoms: _157  and  _158
REMARK   65  A    between atoms: _157  and  _160
REMARK   66  A    between atoms: _160  and  _161
REMARK   67  A    between atoms: _167  and  _169
REMARK   68  A    between atoms: _169  and  _170
REMARK   69  A    between atoms: _169  and  _172
REMARK   70  A    between atoms: _175  and  _177
REMARK   71  A    between atoms: _177  and  _178
REMARK   72  A    between atoms: _177  and  _180
REMARK   73  A    between atoms: _180  and  _181
REMARK   74  A    between atoms: _181  and  _182
REMARK   75  A    between atoms: _182  and  _183
REMARK   76  A    between atoms: _183  and  _184
REMARK   77  A    between atoms: _188  and  _190
REMARK   78  A    between atoms: _190  and  _191
REMARK   79  A    between atoms: _190  and  _193
REMARK   80  A    between atoms: _193  and  _194
REMARK   81  A    between atoms: _197  and  _199
REMARK   82  A    between atoms: _199  and  _200
REMARK   83  A    between atoms: _199  and  _202
REMARK   84  A    between atoms: _202  and  _203
REMARK   85  A    between atoms: _206  and  _208
REMARK   86  A    between atoms: _208  and  _209
REMARK   87  A    between atoms: _208  and  _211
REMARK   88  A    between atoms: _211  and  _212
REMARK   89  A    between atoms: _215  and  _217
REMARK   90  A    between atoms: _217  and  _218
REMARK   91  A    between atoms: _217  and  _220
REMARK   92  A    between atoms: _222  and  _224
REMARK   93  A    between atoms: _224  and  _225
REMARK   94  A    between atoms: _224  and  _227
REMARK   95  A    between atoms: _227  and  _228
REMARK   96  A    between atoms: _228  and  _229
REMARK   97  A    between atoms: _229  and  _230
REMARK   98  A    between atoms: _239  and  _241
REMARK   99  A    between atoms: _241  and  _242
REMARK  100  A    between atoms: _241  and  _244
REMARK  101  A    between atoms: _244  and  _245
REMARK  102  A    between atoms: _245  and  _246
REMARK  103  A    between atoms: _246  and  _247
REMARK  104  A    between atoms: _247  and  _248
REMARK  105  A    between atoms: _252  and  _254
REMARK  106  A    between atoms: _254  and  _255
REMARK  107  A    between atoms: _254  and  _257
REMARK  108  A    between atoms: _257  and  _258
REMARK  109  A    between atoms: _261  and  _263
REMARK  110  A    between atoms: _263  and  _264
REMARK  111  A    between atoms: _263  and  _266
REMARK  112  A    between atoms: _266  and  _267
REMARK  113  A    between atoms: _270  and  _272
REMARK  114  A    between atoms: _272  and  _273
REMARK  115  A    between atoms: _272  and  _275
REMARK  116  A    between atoms: _278  and  _280
REMARK  117  A    between atoms: _280  and  _281
REMARK  118  A    between atoms: _284  and  _286
REMARK  119  A    between atoms: _286  and  _287
REMARK  120  A    between atoms: _286  and  _289
REMARK  121  A    between atoms: _292  and  _294
REMARK  122  A    between atoms: _294  and  _295
REMARK  123  A    between atoms: _294  and  _297
REMARK  124  A    between atoms: _297  and  _298
REMARK  125  A    between atoms: _303  and  _305
REMARK  126  A    between atoms: _305  and  _306
REMARK  127  A    between atoms: _305  and  _308
REMARK  128  A    between atoms: _308  and  _309
REMARK  129  A    between atoms: _315  and  _317
REMARK  130  A    between atoms: _317  and  _318
REMARK  131  A    between atoms: _317  and  _320
REMARK  132  A    between atoms: _320  and  _321
REMARK  133  A    between atoms: _324  and  _326
REMARK  134  A    between atoms: _326  and  _327
REMARK  135  A    between atoms: _330  and  _332
REMARK  136  A    between atoms: _332  and  _333
REMARK  137  A    between atoms: _332  and  _335
REMARK  138  A    between atoms: _335  and  _336
REMARK  139  A    between atoms: _338  and  _340
REMARK  140  A    between atoms: _340  and  _341
REMARK  141  A    between atoms: _340  and  _343
REMARK                            x       y       z     vdW  Elec       q    Type
REMARK                         _______ _______ _______ _____ _____    ______ ____
ROOT
ATOM      1  O   HOH     1      34.050  -7.942  14.303  0.00  0.00    +0.000 OA
ENDROOT
TORSDOF 0
REMARK  Name = ../refined-set-2016/1w4o/1w4o_pocket.pdb
REMARK  141 active torsions:
REMARK  status: ('A' for Active; 'I' for Inactive)
REMARK    1  A    between atoms: _1  and  _3
REMARK    2  A    between atoms: _3  and  _4
REMARK    3  A    between atoms: _7  and  _9
REMARK    4  A    between atoms: _9  and  _10
REMARK    5  A    between atoms: _9  and  _12
REMARK    6  A    between atoms: _12  and  _13
REMARK    7  A    between atoms: _13  and  _14
REMARK    8  A    between atoms: _14  and  _15
REMARK    9  A    between atoms: _15  and  _16
REMARK   10  A    between atoms: _20  and  _22
REMARK   11  A    between atoms: _22  and  _23
REMARK   12  A    between atoms: _22  and  _25
REMARK   13  A    between atoms: _25  and  _26
REMARK   14  A    between atoms: _32  and  _34
REMARK   15  A    between atoms: _34  and  _35
REMARK   16  A    between atoms: _34  and  _37
REMARK   17  A    between atoms: _37  and  _38
REMARK   18  A    between atoms: _38  and  _39
REMARK   19  A    between atoms: _39  and  _40
REMARK   20  A    between atoms: _49  and  _51
REMARK   21  A    between atoms: _51  and  _52
REMARK   22  A    between atoms: _51  and  _54
REMARK   23  A    between atoms: _54  and  _55
REMARK   24  A    between atoms: _55  and  _56
REMARK   25  A    between atoms: _61  and  _63
REMARK   26  A    between atoms: _63  and  _64
REMARK   27  A    between atoms: _63  and  _66
REMARK   28  A    between atoms: _66  and  _67
REMARK   29  A    between atoms: _72  and  _74
REMARK   30  A    between atoms: _74  and  _75
REMARK   31  A    between atoms: _74  and  _77
REMARK   32  A    between atoms: _77  and  _78
REMARK   33  A    between atoms: _78  and  _79
REMARK   34  A    between atoms: _81  and  _83
REMARK   35  A    between atoms: _83  and  _84
REMARK   36  A    between atoms: _83  and  _86
REMARK   37  A    between atoms: _86  and  _87
REMARK   38  A    between atoms: _90  and  _92
REMARK   39  A    between atoms: _92  and  _93
REMARK   40  A    between atoms: _92  and  _95
REMARK   41  A    between atoms: _95  and  _96
REMARK   42  A    between atoms: _96  and  _97
REMARK   43  A    between atoms: _97  and  _98
REMARK   44  A    between atoms: _107  and  _109
REMARK   45  A    between atoms: _109  and  _110
REMARK   46  A    between atoms: _109  and  _112
REMARK   47  A    between atoms: _112  and  _113
REMARK   48  A    between atoms: _113  and  _114
REMARK   49  A    between atoms: _114  and  _115
REMARK   50  A    between atoms: _115  and  _116
REMARK   51  A    between atoms: _121  and  _122
REMARK   52  A    between atoms: _127  and  _129
REMARK   53  A    between atoms: _129  and  _130
REMARK   54  A    between atoms: _129  and  _132
REMARK   55  A    between atoms: _135  and  _137
REMARK   56  A    between atoms: _137  and  _138
REMARK   57  A    between atoms: _137  and  _140
REMARK   58  A    between atoms: _140  and  _141
REMARK   59  A    between atoms: _146  and  _148
REMARK   60  A    between atoms: _148  and  _149
REMARK   61  A    between atoms: _148  and  _151
REMARK   62  A    between atoms: _151  and  _152
REMARK   63  A    between atoms: _155  and  _157
REMARK   64  A    between atoms: _157  and  _158
REMARK   65  A    between atoms: _157  and  _160
REMARK   66  A    between atoms: _160  and  _161
REMARK   67  A    between atoms: _167  and  _169
REMARK   68  A    between atoms: _169  and  _170
REMARK   69  A    between atoms: _169  and  _172
REMARK   70  A    between atoms: _175  and  _177
REMARK   71  A    between atoms: _177  and  _178
REMARK   72  A    between atoms: _177  and  _180
REMARK   73  A    between atoms: _180  and  _181
REMARK   74  A    between atoms: _181  and  _182
REMARK   75  A    between atoms: _182  and  _183
REMARK   76  A    between atoms: _183  and  _184
REMARK   77  A    between atoms: _188  and  _190
REMARK   78  A    between atoms: _190  and  _191
REMARK   79  A    between atoms: _190  and  _193
REMARK   80  A    between atoms: _193  and  _194
REMARK   81  A    between atoms: _197  and  _199
REMARK   82  A    between atoms: _199  and  _200
REMARK   83  A    between atoms: _199  and  _202
REMARK   84  A    between atoms: _202  and  _203
REMARK   85  A    between atoms: _206  and  _208
REMARK   86  A    between atoms: _208  and  _209
REMARK   87  A    between atoms: _208  and  _211
REMARK   88  A    between atoms: _211  and  _212
REMARK   89  A    between atoms: _215  and  _217
REMARK   90  A    between atoms: _217  and  _218
REMARK   91  A    between atoms: _217  and  _220
REMARK   92  A    between atoms: _222  and  _224
REMARK   93  A    between atoms: _224  and  _225
REMARK   94  A    between atoms: _224  and  _227
REMARK   95  A    between atoms: _227  and  _228
REMARK   96  A    between atoms: _228  and  _229
REMARK   97  A    between atoms: _229  and  _230
REMARK   98  A    between atoms: _239  and  _241
REMARK   99  A    between atoms: _241  and  _242
REMARK  100  A    between atoms: _241  and  _244
REMARK  101  A    between atoms: _244  and  _245
REMARK  102  A    between atoms: _245  and  _246
REMARK  103  A    between atoms: _246  and  _247
REMARK  104  A    between atoms: _247  and  _248
REMARK  105  A    between atoms: _252  and  _254
REMARK  106  A    between atoms: _254  and  _255
REMARK  107  A    between atoms: _254  and  _257
REMARK  108  A    between atoms: _257  and  _258
REMARK  109  A    between atoms: _261  and  _263
REMARK  110  A    between atoms: _263  and  _264
REMARK  111  A    between atoms: _263  and  _266
REMARK  112  A    between atoms: _266  and  _267
REMARK  113  A    between atoms: _270  and  _272
REMARK  114  A    between atoms: _272  and  _273
REMARK  115  A    between atoms: _272  and  _275
REMARK  116  A    between atoms: _278  and  _280
REMARK  117  A    between atoms: _280  and  _281
REMARK  118  A    between atoms: _284  and  _286
REMARK  119  A    between atoms: _286  and  _287
REMARK  120  A    between atoms: _286  and  _289
REMARK  121  A    between atoms: _292  and  _294
REMARK  122  A    between atoms: _294  and  _295
REMARK  123  A    between atoms: _294  and  _297
REMARK  124  A    between atoms: _297  and  _298
REMARK  125  A    between atoms: _303  and  _305
REMARK  126  A    between atoms: _305  and  _306
REMARK  127  A    between atoms: _305  and  _308
REMARK  128  A    between atoms: _308  and  _309
REMARK  129  A    between atoms: _315  and  _317
REMARK  130  A    between atoms: _317  and  _318
REMARK  131  A    between atoms: _317  and  _320
REMARK  132  A    between atoms: _320  and  _321
REMARK  133  A    between atoms: _324  and  _326
REMARK  134  A    between atoms: _326  and  _327
REMARK  135  A    between atoms: _330  and  _332
REMARK  136  A    between atoms: _332  and  _333
REMARK  137  A    between atoms: _332  and  _335
REMARK  138  A    between atoms: _335  and  _336
REMARK  139  A    between atoms: _338  and  _340
REMARK  140  A    between atoms: _340  and  _341
REMARK  141  A    between atoms: _340  and  _343
REMARK                            x       y       z     vdW  Elec       q    Type
REMARK                         _______ _______ _______ _____ _____    ______ ____
ROOT
ATOM      1  O   HOH     1      37.616  -2.427  16.819  0.00  0.00    +0.000 OA
ENDROOT
TORSDOF 0
REMARK  Name = ../refined-set-2016/1w4o/1w4o_pocket.pdb
REMARK  141 active torsions:
REMARK  status: ('A' for Active; 'I' for Inactive)
REMARK    1  A    between atoms: _1  and  _3
REMARK    2  A    between atoms: _3  and  _4
REMARK    3  A    between atoms: _7  and  _9
REMARK    4  A    between atoms: _9  and  _10
REMARK    5  A    between atoms: _9  and  _12
REMARK    6  A    between atoms: _12  and  _13
REMARK    7  A    between atoms: _13  and  _14
REMARK    8  A    between atoms: _14  and  _15
REMARK    9  A    between atoms: _15  and  _16
REMARK   10  A    between atoms: _20  and  _22
REMARK   11  A    between atoms: _22  and  _23
REMARK   12  A    between atoms: _22  and  _25
REMARK   13  A    between atoms: _25  and  _26
REMARK   14  A    between atoms: _32  and  _34
REMARK   15  A    between atoms: _34  and  _35
REMARK   16  A    between atoms: _34  and  _37
REMARK   17  A    between atoms: _37  and  _38
REMARK   18  A    between atoms: _38  and  _39
REMARK   19  A    between atoms: _39  and  _40
REMARK   20  A    between atoms: _49  and  _51
REMARK   21  A    between atoms: _51  and  _52
REMARK   22  A    between atoms: _51  and  _54
REMARK   23  A    between atoms: _54  and  _55
REMARK   24  A    between atoms: _55  and  _56
REMARK   25  A    between atoms: _61  and  _63
REMARK   26  A    between atoms: _63  and  _64
REMARK   27  A    between atoms: _63  and  _66
REMARK   28  A    between atoms: _66  and  _67
REMARK   29  A    between atoms: _72  and  _74
REMARK   30  A    between atoms: _74  and  _75
REMARK   31  A    between atoms: _74  and  _77
REMARK   32  A    between atoms: _77  and  _78
REMARK   33  A    between atoms: _78  and  _79
REMARK   34  A    between atoms: _81  and  _83
REMARK   35  A    between atoms: _83  and  _84
REMARK   36  A    between atoms: _83  and  _86
REMARK   37  A    between atoms: _86  and  _87
REMARK   38  A    between atoms: _90  and  _92
REMARK   39  A    between atoms: _92  and  _93
REMARK   40  A    between atoms: _92  and  _95
REMARK   41  A    between atoms: _95  and  _96
REMARK   42  A    between atoms: _96  and  _97
REMARK   43  A    between atoms: _97  and  _98
REMARK   44  A    between atoms: _107  and  _109
REMARK   45  A    between atoms: _109  and  _110
REMARK   46  A    between atoms: _109  and  _112
REMARK   47  A    between atoms: _112  and  _113
REMARK   48  A    between atoms: _113  and  _114
REMARK   49  A    between atoms: _114  and  _115
REMARK   50  A    between atoms: _115  and  _116
REMARK   51  A    between atoms: _121  and  _122
REMARK   52  A    between atoms: _127  and  _129
REMARK   53  A    between atoms: _129  and  _130
REMARK   54  A    between atoms: _129  and  _132
REMARK   55  A    between atoms: _135  and  _137
REMARK   56  A    between atoms: _137  and  _138
REMARK   57  A    between atoms: _137  and  _140
REMARK   58  A    between atoms: _140  and  _141
REMARK   59  A    between atoms: _146  and  _148
REMARK   60  A    between atoms: _148  and  _149
REMARK   61  A    between atoms: _148  and  _151
REMARK   62  A    between atoms: _151  and  _152
REMARK   63  A    between atoms: _155  and  _157
REMARK   64  A    between atoms: _157  and  _158
REMARK   65  A    between atoms: _157  and  _160
REMARK   66  A    between atoms: _160  and  _161
REMARK   67  A    between atoms: _167  and  _169
REMARK   68  A    between atoms: _169  and  _170
REMARK   69  A    between atoms: _169  and  _172
REMARK   70  A    between atoms: _175  and  _177
REMARK   71  A    between atoms: _177  and  _178
REMARK   72  A    between atoms: _177  and  _180
REMARK   73  A    between atoms: _180  and  _181
REMARK   74  A    between atoms: _181  and  _182
REMARK   75  A    between atoms: _182  and  _183
REMARK   76  A    between atoms: _183  and  _184
REMARK   77  A    between atoms: _188  and  _190
REMARK   78  A    between atoms: _190  and  _191
REMARK   79  A    between atoms: _190  and  _193
REMARK   80  A    between atoms: _193  and  _194
REMARK   81  A    between atoms: _197  and  _199
REMARK   82  A    between atoms: _199  and  _200
REMARK   83  A    between atoms: _199  and  _202
REMARK   84  A    between atoms: _202  and  _203
REMARK   85  A    between atoms: _206  and  _208
REMARK   86  A    between atoms: _208  and  _209
REMARK   87  A    between atoms: _208  and  _211
REMARK   88  A    between atoms: _211  and  _212
REMARK   89  A    between atoms: _215  and  _217
REMARK   90  A    between atoms: _217  and  _218
REMARK   91  A    between atoms: _217  and  _220
REMARK   92  A    between atoms: _222  and  _224
REMARK   93  A    between atoms: _224  and  _225
REMARK   94  A    between atoms: _224  and  _227
REMARK   95  A    between atoms: _227  and  _228
REMARK   96  A    between atoms: _228  and  _229
REMARK   97  A    between atoms: _229  and  _230
REMARK   98  A    between atoms: _239  and  _241
REMARK   99  A    between atoms: _241  and  _242
REMARK  100  A    between atoms: _241  and  _244
REMARK  101  A    between atoms: _244  and  _245
REMARK  102  A    between atoms: _245  and  _246
REMARK  103  A    between atoms: _246  and  _247
REMARK  104  A    between atoms: _247  and  _248
REMARK  105  A    between atoms: _252  and  _254
REMARK  106  A    between atoms: _254  and  _255
REMARK  107  A    between atoms: _254  and  _257
REMARK  108  A    between atoms: _257  and  _258
REMARK  109  A    between atoms: _261  and  _263
REMARK  110  A    between atoms: _263  and  _264
REMARK  111  A    between atoms: _263  and  _266
REMARK  112  A    between atoms: _266  and  _267
REMARK  113  A    between atoms: _270  and  _272
REMARK  114  A    between atoms: _272  and  _273
REMARK  115  A    between atoms: _272  and  _275
REMARK  116  A    between atoms: _278  and  _280
REMARK  117  A    between atoms: _280  and  _281
REMARK  118  A    between atoms: _284  and  _286
REMARK  119  A    between atoms: _286  and  _287
REMARK  120  A    between atoms: _286  and  _289
REMARK  121  A    between atoms: _292  and  _294
REMARK  122  A    between atoms: _294  and  _295
REMARK  123  A    between atoms: _294  and  _297
REMARK  124  A    between atoms: _297  and  _298
REMARK  125  A    between atoms: _303  and  _305
REMARK  126  A    between atoms: _305  and  _306
REMARK  127  A    between atoms: _305  and  _308
REMARK  128  A    between atoms: _308  and  _309
REMARK  129  A    between atoms: _315  and  _317
REMARK  130  A    between atoms: _317  and  _318
REMARK  131  A    between atoms: _317  and  _320
REMARK  132  A    between atoms: _320  and  _321
REMARK  133  A    between atoms: _324  and  _326
REMARK  134  A    between atoms: _326  and  _327
REMARK  135  A    between atoms: _330  and  _332
REMARK  136  A    between atoms: _332  and  _333
REMARK  137  A    between atoms: _332  and  _335
REMARK  138  A    between atoms: _335  and  _336
REMARK  139  A    between atoms: _338  and  _340
REMARK  140  A    between atoms: _340  and  _341
REMARK  141  A    between atoms: _340  and  _343
REMARK                            x       y       z     vdW  Elec       q    Type
REMARK                         _______ _______ _______ _____ _____    ______ ____
ROOT
ATOM      1  O   HOH     1      32.171  -6.592  11.298  0.00  0.00    +0.000 OA
ENDROOT
TORSDOF 0
