REMARK  Name = ../refined-set-2016/3zbx/3zbx_pocket.pdb
REMARK  217 active torsions:
REMARK  status: ('A' for Active; 'I' for Inactive)
REMARK    1  A    between atoms: _1  and  _3
REMARK    2  A    between atoms: _3  and  _4
REMARK    3  A    between atoms: _3  and  _6
REMARK    4  A    between atoms: _9  and  _11
REMARK    5  A    between atoms: _11  and  _12
REMARK    6  A    between atoms: _11  and  _14
REMARK    7  A    between atoms: _14  and  _15
REMARK    8  A    between atoms: _18  and  _20
REMARK    9  A    between atoms: _20  and  _21
REMARK   10  A    between atoms: _23  and  _25
REMARK   11  A    between atoms: _25  and  _26
REMARK   12  A    between atoms: _25  and  _28
REMARK   13  A    between atoms: _28  and  _29
REMARK   14  A    between atoms: _29  and  _30
REMARK   15  A    between atoms: _30  and  _31
REMARK   16  A    between atoms: _40  and  _42
REMARK   17  A    between atoms: _42  and  _43
REMARK   18  A    between atoms: _45  and  _47
REMARK   19  A    between atoms: _47  and  _48
REMARK   20  A    between atoms: _47  and  _50
REMARK   21  A    between atoms: _52  and  _54
REMARK   22  A    between atoms: _54  and  _55
REMARK   23  A    between atoms: _54  and  _57
REMARK   24  A    between atoms: _60  and  _62
REMARK   25  A    between atoms: _62  and  _63
REMARK   26  A    between atoms: _62  and  _65
REMARK   27  A    between atoms: _65  and  _66
REMARK   28  A    between atoms: _71  and  _72
REMARK   29  A    between atoms: _74  and  _76
REMARK   30  A    between atoms: _76  and  _77
REMARK   31  A    between atoms: _76  and  _79
REMARK   32  A    between atoms: _79  and  _80
REMARK   33  A    between atoms: _85  and  _87
REMARK   34  A    between atoms: _87  and  _88
REMARK   35  A    between atoms: _87  and  _90
REMARK   36  A    between atoms: _90  and  _91
REMARK   37  A    between atoms: _96  and  _98
REMARK   38  A    between atoms: _98  and  _99
REMARK   39  A    between atoms: _98  and  _101
REMARK   40  A    between atoms: _103  and  _105
REMARK   41  A    between atoms: _105  and  _106
REMARK   42  A    between atoms: _109  and  _111
REMARK   43  A    between atoms: _111  and  _112
REMARK   44  A    between atoms: _111  and  _114
REMARK   45  A    between atoms: _117  and  _119
REMARK   46  A    between atoms: _119  and  _120
REMARK   47  A    between atoms: _119  and  _122
REMARK   48  A    between atoms: _122  and  _123
REMARK   49  A    between atoms: _123  and  _124
REMARK   50  A    between atoms: _124  and  _125
REMARK   51  A    between atoms: _125  and  _126
REMARK   52  A    between atoms: _130  and  _132
REMARK   53  A    between atoms: _132  and  _133
REMARK   54  A    between atoms: _132  and  _135
REMARK   55  A    between atoms: _135  and  _136
REMARK   56  A    between atoms: _138  and  _140
REMARK   57  A    between atoms: _140  and  _141
REMARK   58  A    between atoms: _140  and  _143
REMARK   59  A    between atoms: _143  and  _144
REMARK   60  A    between atoms: _144  and  _145
REMARK   61  A    between atoms: _147  and  _149
REMARK   62  A    between atoms: _149  and  _150
REMARK   63  A    between atoms: _149  and  _152
REMARK   64  A    between atoms: _152  and  _153
REMARK   65  A    between atoms: _156  and  _158
REMARK   66  A    between atoms: _158  and  _159
REMARK   67  A    between atoms: _158  and  _161
REMARK   68  A    between atoms: _161  and  _162
REMARK   69  A    between atoms: _164  and  _166
REMARK   70  A    between atoms: _166  and  _167
REMARK   71  A    between atoms: _166  and  _169
REMARK   72  A    between atoms: _172  and  _174
REMARK   73  A    between atoms: _174  and  _175
REMARK   74  A    between atoms: _174  and  _177
REMARK   75  A    between atoms: _180  and  _182
REMARK   76  A    between atoms: _182  and  _183
REMARK   77  A    between atoms: _182  and  _185
REMARK   78  A    between atoms: _185  and  _186
REMARK   79  A    between atoms: _190  and  _191
REMARK   80  A    between atoms: _196  and  _198
REMARK   81  A    between atoms: _198  and  _199
REMARK   82  A    between atoms: _198  and  _201
REMARK   83  A    between atoms: _201  and  _202
REMARK   84  A    between atoms: _207  and  _208
REMARK   85  A    between atoms: _210  and  _212
REMARK   86  A    between atoms: _212  and  _213
REMARK   87  A    between atoms: _212  and  _215
REMARK   88  A    between atoms: _215  and  _216
REMARK   89  A    between atoms: _216  and  _217
REMARK   90  A    between atoms: _219  and  _221
REMARK   91  A    between atoms: _221  and  _222
REMARK   92  A    between atoms: _221  and  _224
REMARK   93  A    between atoms: _224  and  _225
REMARK   94  A    between atoms: _225  and  _226
REMARK   95  A    between atoms: _226  and  _227
REMARK   96  A    between atoms: _227  and  _228
REMARK   97  A    between atoms: _232  and  _234
REMARK   98  A    between atoms: _234  and  _235
REMARK   99  A    between atoms: _234  and  _237
REMARK  100  A    between atoms: _237  and  _238
REMARK  101  A    between atoms: _243  and  _245
REMARK  102  A    between atoms: _245  and  _246
REMARK  103  A    between atoms: _248  and  _250
REMARK  104  A    between atoms: _250  and  _251
REMARK  105  A    between atoms: _250  and  _253
REMARK  106  A    between atoms: _253  and  _254
REMARK  107  A    between atoms: _257  and  _259
REMARK  108  A    between atoms: _259  and  _260
REMARK  109  A    between atoms: _259  and  _262
REMARK  110  A    between atoms: _262  and  _263
REMARK  111  A    between atoms: _266  and  _268
REMARK  112  A    between atoms: _268  and  _269
REMARK  113  A    between atoms: _268  and  _271
REMARK  114  A    between atoms: _271  and  _272
REMARK  115  A    between atoms: _272  and  _273
REMARK  116  A    between atoms: _273  and  _274
REMARK  117  A    between atoms: _283  and  _285
REMARK  118  A    between atoms: _285  and  _286
REMARK  119  A    between atoms: _285  and  _288
REMARK  120  A    between atoms: _288  and  _289
REMARK  121  A    between atoms: _294  and  _296
REMARK  122  A    between atoms: _296  and  _297
REMARK  123  A    between atoms: _296  and  _299
REMARK  124  A    between atoms: _299  and  _300
REMARK  125  A    between atoms: _306  and  _308
REMARK  126  A    between atoms: _308  and  _309
REMARK  127  A    between atoms: _308  and  _311
REMARK  128  A    between atoms: _311  and  _312
REMARK  129  A    between atoms: _317  and  _319
REMARK  130  A    between atoms: _319  and  _320
REMARK  131  A    between atoms: _319  and  _322
REMARK  132  A    between atoms: _322  and  _323
REMARK  133  A    between atoms: _326  and  _328
REMARK  134  A    between atoms: _328  and  _329
REMARK  135  A    between atoms: _332  and  _334
REMARK  136  A    between atoms: _334  and  _335
REMARK  137  A    between atoms: _338  and  _340
REMARK  138  A    between atoms: _340  and  _341
REMARK  139  A    between atoms: _340  and  _343
REMARK  140  A    between atoms: _343  and  _344
REMARK  141  A    between atoms: _344  and  _345
REMARK  142  A    between atoms: _345  and  _346
REMARK  143  A    between atoms: _355  and  _357
REMARK  144  A    between atoms: _357  and  _358
REMARK  145  A    between atoms: _357  and  _360
REMARK  146  A    between atoms: _360  and  _361
REMARK  147  A    between atoms: _366  and  _368
REMARK  148  A    between atoms: _368  and  _369
REMARK  149  A    between atoms: _368  and  _371
REMARK  150  A    between atoms: _373  and  _375
REMARK  151  A    between atoms: _375  and  _376
REMARK  152  A    between atoms: _375  and  _378
REMARK  153  A    between atoms: _378  and  _379
REMARK  154  A    between atoms: _379  and  _380
REMARK  155  A    between atoms: _382  and  _384
REMARK  156  A    between atoms: _384  and  _385
REMARK  157  A    between atoms: _384  and  _387
REMARK  158  A    between atoms: _387  and  _388
REMARK  159  A    between atoms: _391  and  _393
REMARK  160  A    between atoms: _393  and  _394
REMARK  161  A    between atoms: _393  and  _396
REMARK  162  A    between atoms: _396  and  _397
REMARK  163  A    between atoms: _400  and  _402
REMARK  164  A    between atoms: _402  and  _403
REMARK  165  A    between atoms: _402  and  _405
REMARK  166  A    between atoms: _405  and  _406
REMARK  167  A    between atoms: _406  and  _407
REMARK  168  A    between atoms: _407  and  _408
REMARK  169  A    between atoms: _408  and  _409
REMARK  170  A    between atoms: _413  and  _415
REMARK  171  A    between atoms: _415  and  _416
REMARK  172  A    between atoms: _415  and  _418
REMARK  173  A    between atoms: _421  and  _423
REMARK  174  A    between atoms: _423  and  _424
REMARK  175  A    between atoms: _427  and  _429
REMARK  176  A    between atoms: _429  and  _430
REMARK  177  A    between atoms: _429  and  _432
REMARK  178  A    between atoms: _432  and  _433
REMARK  179  A    between atoms: _436  and  _438
REMARK  180  A    between atoms: _438  and  _439
REMARK  181  A    between atoms: _438  and  _441
REMARK  182  A    between atoms: _441  and  _442
REMARK  183  A    between atoms: _448  and  _450
REMARK  184  A    between atoms: _450  and  _451
REMARK  185  A    between atoms: _450  and  _453
REMARK  186  A    between atoms: _453  and  _454
REMARK  187  A    between atoms: _457  and  _459
REMARK  188  A    between atoms: _459  and  _460
REMARK  189  A    between atoms: _463  and  _465
REMARK  190  A    between atoms: _465  and  _466
REMARK  191  A    between atoms: _465  and  _468
REMARK  192  A    between atoms: _468  and  _469
REMARK  193  A    between atoms: _469  and  _470
REMARK  194  A    between atoms: _470  and  _471
REMARK  195  A    between atoms: _480  and  _482
REMARK  196  A    between atoms: _482  and  _483
REMARK  197  A    between atoms: _482  and  _485
REMARK  198  A    between atoms: _485  and  _486
REMARK  199  A    between atoms: _489  and  _491
REMARK  200  A    between atoms: _491  and  _492
REMARK  201  A    between atoms: _491  and  _494
REMARK  202  A    between atoms: _494  and  _495
REMARK  203  A    between atoms: _495  and  _496
REMARK  204  A    between atoms: _498  and  _500
REMARK  205  A    between atoms: _500  and  _501
REMARK  206  A    between atoms: _500  and  _503
REMARK  207  A    between atoms: _503  and  _504
REMARK  208  A    between atoms: _509  and  _510
REMARK  209  A    between atoms: _512  and  _514
REMARK  210  A    between atoms: _514  and  _515
REMARK  211  A    between atoms: _514  and  _517
REMARK  212  A    between atoms: _517  and  _518
REMARK  213  A    between atoms: _521  and  _523
REMARK  214  A    between atoms: _523  and  _524
REMARK  215  A    between atoms: _523  and  _526
REMARK  216  A    between atoms: _526  and  _527
REMARK  217  A    between atoms: _532  and  _533
REMARK                            x       y       z     vdW  Elec       q    Type
REMARK                         _______ _______ _______ _____ _____    ______ ____
ROOT
ATOM      1  C   GLY A   3      17.507   6.889  46.317  0.00  0.00    +0.243 C 
ATOM      2  N   ARG A   4      16.449   7.675  46.487  0.00  0.00    -0.297 N 
ATOM      3  H   ARG A   4      16.552   8.705  46.385  0.00  0.00    +0.150 HD
ATOM      4  O   GLY A   3      17.455   5.662  46.442  0.00  0.00    -0.273 OA
ENDROOT
BRANCH   2   5
ATOM      5  CA  ARG A   4      15.146   7.111  46.815  0.00  0.00    +0.149 C 
BRANCH   5   6
ATOM      6  C   ARG A   4      14.014   7.682  45.970  0.00  0.00    +0.241 C 
ATOM      7  O   ARG A   4      13.698   8.869  46.041  0.00  0.00    -0.273 OA
ATOM      8  N   GLY A   5      13.403   6.818  45.168  0.00  0.00    -0.296 N 
ATOM      9  H   GLY A   5      13.716   5.826  45.147  0.00  0.00    +0.150 HD
BRANCH   8  10
ATOM     10  CA  GLY A   5      12.305   7.241  44.322  0.00  0.00    +0.163 C 
BRANCH  10  11
ATOM     11  C   GLY A   5      11.032   6.468  44.600  0.00  0.00    +0.229 C 
ATOM     12  O   GLY A   5      11.024   5.513  45.377  0.00  0.00    -0.286 OA
ENDBRANCH  10  11
ENDBRANCH   8  10
ENDBRANCH   5   6
BRANCH   5  13
ATOM     13  CB  ARG A   4      14.851   7.316  48.299  0.00  0.00    +0.033 C 
BRANCH  13  14
ATOM     14  CG  ARG A   4      15.895   6.688  49.196  0.00  0.00    +0.045 C 
BRANCH  14  15
ATOM     15  CD  ARG A   4      15.521   6.785  50.658  0.00  0.00    +0.174 C 
BRANCH  15  16
ATOM     16  NE  ARG A   4      15.961   5.596  51.377  0.00  0.00    -0.265 N 
ATOM     17  HE  ARG A   4      16.931   5.580  51.751  0.00  0.00    +0.259 HD
ATOM     18  CZ  ARG A   4      15.192   4.531  51.581  0.00  0.00    +0.342 C 
ATOM     19  NH2 ARG A   4      15.670   3.480  52.234  0.00  0.00    -0.292 N 
ATOM     20 HH21 ARG A   4      16.648   3.488  52.587  0.00  0.00    +0.255 HD
ATOM     21 HH22 ARG A   4      15.067   2.648  52.393  0.00  0.00    +0.255 HD
ATOM     22  NH1 ARG A   4      13.947   4.517  51.122  0.00  0.00    -0.292 N 
ATOM     23 HH11 ARG A   4      13.344   3.685  51.280  0.00  0.00    +0.255 HD
ATOM     24 HH12 ARG A   4      13.575   5.338  50.604  0.00  0.00    +0.255 HD
ENDBRANCH  15  16
ENDBRANCH  14  15
ENDBRANCH  13  14
ENDBRANCH   5  13
ENDBRANCH   2   5
BRANCH   1  25
ATOM     25  CA  GLY A   3      18.814   7.570  45.960  0.00  0.00    +0.176 C 
BRANCH  25  27
ATOM     26  C   ILE A   2      21.174   7.330  46.447  0.00  0.00    +0.241 C 
ATOM     27  N   GLY A   3      19.941   6.841  46.510  0.00  0.00    -0.295 N 
ATOM     28  H   GLY A   3      19.780   5.918  46.962  0.00  0.00    +0.150 HD
ATOM     29  O   ILE A   2      21.458   8.399  45.900  0.00  0.00    -0.273 OA
BRANCH  26  30
ATOM     30  CA  ILE A   2      22.251   6.472  47.088  0.00  0.00    +0.148 C 
BRANCH  30  33
ATOM     31  C   VAL A   1      21.868   4.632  48.637  0.00  0.00    +0.238 C 
ATOM     32  O   VAL A   1      22.458   5.209  49.552  0.00  0.00    -0.274 OA
ATOM     33  N   ILE A   2      21.726   5.154  47.424  0.00  0.00    -0.297 N 
ATOM     34  H   ILE A   2      21.226   4.607  46.694  0.00  0.00    +0.150 HD
BRANCH  31  35
ATOM     35  CA  VAL A   1      21.255   3.251  48.849  0.00  0.00    +0.145 C 
BRANCH  35  36
ATOM     36  CB  VAL A   1      19.985   3.404  49.719  0.00  0.00    +0.025 C 
ATOM     37  CG2 VAL A   1      19.368   2.030  49.997  0.00  0.00    +0.002 C 
ATOM     38  CG1 VAL A   1      18.984   4.307  49.018  0.00  0.00    +0.002 C 
ENDBRANCH  35  36
BRANCH  35  39
ATOM     39  N   VAL A   1      22.220   2.364  49.481  0.00  0.00    -0.238 NA
ATOM     40  H   VAL A   1      22.152   2.196  50.505  0.00  0.00    +0.142 HD
ENDBRANCH  35  39
ENDBRANCH  31  35
ENDBRANCH  30  33
BRANCH  30  41
ATOM     41  CB  ILE A   2      23.453   6.369  46.121  0.00  0.00    +0.027 C 
ATOM     42  CG2 ILE A   2      24.646   5.789  46.850  0.00  0.00    +0.002 C 
BRANCH  41  43
ATOM     43  CG1 ILE A   2      23.082   5.511  44.910  0.00  0.00    +0.002 C 
ATOM     44  CD1 ILE A   2      24.225   5.307  43.932  0.00  0.00    +0.000 C 
ENDBRANCH  41  43
ENDBRANCH  30  41
ENDBRANCH  26  30
ENDBRANCH  25  27
ENDBRANCH   1  25
TORSDOF 17
REMARK  Name = ../refined-set-2016/3zbx/3zbx_pocket.pdb
REMARK  217 active torsions:
REMARK  status: ('A' for Active; 'I' for Inactive)
REMARK    1  A    between atoms: _1  and  _3
REMARK    2  A    between atoms: _3  and  _4
REMARK    3  A    between atoms: _3  and  _6
REMARK    4  A    between atoms: _9  and  _11
REMARK    5  A    between atoms: _11  and  _12
REMARK    6  A    between atoms: _11  and  _14
REMARK    7  A    between atoms: _14  and  _15
REMARK    8  A    between atoms: _18  and  _20
REMARK    9  A    between atoms: _20  and  _21
REMARK   10  A    between atoms: _23  and  _25
REMARK   11  A    between atoms: _25  and  _26
REMARK   12  A    between atoms: _25  and  _28
REMARK   13  A    between atoms: _28  and  _29
REMARK   14  A    between atoms: _29  and  _30
REMARK   15  A    between atoms: _30  and  _31
REMARK   16  A    between atoms: _40  and  _42
REMARK   17  A    between atoms: _42  and  _43
REMARK   18  A    between atoms: _45  and  _47
REMARK   19  A    between atoms: _47  and  _48
REMARK   20  A    between atoms: _47  and  _50
REMARK   21  A    between atoms: _52  and  _54
REMARK   22  A    between atoms: _54  and  _55
REMARK   23  A    between atoms: _54  and  _57
REMARK   24  A    between atoms: _60  and  _62
REMARK   25  A    between atoms: _62  and  _63
REMARK   26  A    between atoms: _62  and  _65
REMARK   27  A    between atoms: _65  and  _66
REMARK   28  A    between atoms: _71  and  _72
REMARK   29  A    between atoms: _74  and  _76
REMARK   30  A    between atoms: _76  and  _77
REMARK   31  A    between atoms: _76  and  _79
REMARK   32  A    between atoms: _79  and  _80
REMARK   33  A    between atoms: _85  and  _87
REMARK   34  A    between atoms: _87  and  _88
REMARK   35  A    between atoms: _87  and  _90
REMARK   36  A    between atoms: _90  and  _91
REMARK   37  A    between atoms: _96  and  _98
REMARK   38  A    between atoms: _98  and  _99
REMARK   39  A    between atoms: _98  and  _101
REMARK   40  A    between atoms: _103  and  _105
REMARK   41  A    between atoms: _105  and  _106
REMARK   42  A    between atoms: _109  and  _111
REMARK   43  A    between atoms: _111  and  _112
REMARK   44  A    between atoms: _111  and  _114
REMARK   45  A    between atoms: _117  and  _119
REMARK   46  A    between atoms: _119  and  _120
REMARK   47  A    between atoms: _119  and  _122
REMARK   48  A    between atoms: _122  and  _123
REMARK   49  A    between atoms: _123  and  _124
REMARK   50  A    between atoms: _124  and  _125
REMARK   51  A    between atoms: _125  and  _126
REMARK   52  A    between atoms: _130  and  _132
REMARK   53  A    between atoms: _132  and  _133
REMARK   54  A    between atoms: _132  and  _135
REMARK   55  A    between atoms: _135  and  _136
REMARK   56  A    between atoms: _138  and  _140
REMARK   57  A    between atoms: _140  and  _141
REMARK   58  A    between atoms: _140  and  _143
REMARK   59  A    between atoms: _143  and  _144
REMARK   60  A    between atoms: _144  and  _145
REMARK   61  A    between atoms: _147  and  _149
REMARK   62  A    between atoms: _149  and  _150
REMARK   63  A    between atoms: _149  and  _152
REMARK   64  A    between atoms: _152  and  _153
REMARK   65  A    between atoms: _156  and  _158
REMARK   66  A    between atoms: _158  and  _159
REMARK   67  A    between atoms: _158  and  _161
REMARK   68  A    between atoms: _161  and  _162
REMARK   69  A    between atoms: _164  and  _166
REMARK   70  A    between atoms: _166  and  _167
REMARK   71  A    between atoms: _166  and  _169
REMARK   72  A    between atoms: _172  and  _174
REMARK   73  A    between atoms: _174  and  _175
REMARK   74  A    between atoms: _174  and  _177
REMARK   75  A    between atoms: _180  and  _182
REMARK   76  A    between atoms: _182  and  _183
REMARK   77  A    between atoms: _182  and  _185
REMARK   78  A    between atoms: _185  and  _186
REMARK   79  A    between atoms: _190  and  _191
REMARK   80  A    between atoms: _196  and  _198
REMARK   81  A    between atoms: _198  and  _199
REMARK   82  A    between atoms: _198  and  _201
REMARK   83  A    between atoms: _201  and  _202
REMARK   84  A    between atoms: _207  and  _208
REMARK   85  A    between atoms: _210  and  _212
REMARK   86  A    between atoms: _212  and  _213
REMARK   87  A    between atoms: _212  and  _215
REMARK   88  A    between atoms: _215  and  _216
REMARK   89  A    between atoms: _216  and  _217
REMARK   90  A    between atoms: _219  and  _221
REMARK   91  A    between atoms: _221  and  _222
REMARK   92  A    between atoms: _221  and  _224
REMARK   93  A    between atoms: _224  and  _225
REMARK   94  A    between atoms: _225  and  _226
REMARK   95  A    between atoms: _226  and  _227
REMARK   96  A    between atoms: _227  and  _228
REMARK   97  A    between atoms: _232  and  _234
REMARK   98  A    between atoms: _234  and  _235
REMARK   99  A    between atoms: _234  and  _237
REMARK  100  A    between atoms: _237  and  _238
REMARK  101  A    between atoms: _243  and  _245
REMARK  102  A    between atoms: _245  and  _246
REMARK  103  A    between atoms: _248  and  _250
REMARK  104  A    between atoms: _250  and  _251
REMARK  105  A    between atoms: _250  and  _253
REMARK  106  A    between atoms: _253  and  _254
REMARK  107  A    between atoms: _257  and  _259
REMARK  108  A    between atoms: _259  and  _260
REMARK  109  A    between atoms: _259  and  _262
REMARK  110  A    between atoms: _262  and  _263
REMARK  111  A    between atoms: _266  and  _268
REMARK  112  A    between atoms: _268  and  _269
REMARK  113  A    between atoms: _268  and  _271
REMARK  114  A    between atoms: _271  and  _272
REMARK  115  A    between atoms: _272  and  _273
REMARK  116  A    between atoms: _273  and  _274
REMARK  117  A    between atoms: _283  and  _285
REMARK  118  A    between atoms: _285  and  _286
REMARK  119  A    between atoms: _285  and  _288
REMARK  120  A    between atoms: _288  and  _289
REMARK  121  A    between atoms: _294  and  _296
REMARK  122  A    between atoms: _296  and  _297
REMARK  123  A    between atoms: _296  and  _299
REMARK  124  A    between atoms: _299  and  _300
REMARK  125  A    between atoms: _306  and  _308
REMARK  126  A    between atoms: _308  and  _309
REMARK  127  A    between atoms: _308  and  _311
REMARK  128  A    between atoms: _311  and  _312
REMARK  129  A    between atoms: _317  and  _319
REMARK  130  A    between atoms: _319  and  _320
REMARK  131  A    between atoms: _319  and  _322
REMARK  132  A    between atoms: _322  and  _323
REMARK  133  A    between atoms: _326  and  _328
REMARK  134  A    between atoms: _328  and  _329
REMARK  135  A    between atoms: _332  and  _334
REMARK  136  A    between atoms: _334  and  _335
REMARK  137  A    between atoms: _338  and  _340
REMARK  138  A    between atoms: _340  and  _341
REMARK  139  A    between atoms: _340  and  _343
REMARK  140  A    between atoms: _343  and  _344
REMARK  141  A    between atoms: _344  and  _345
REMARK  142  A    between atoms: _345  and  _346
REMARK  143  A    between atoms: _355  and  _357
REMARK  144  A    between atoms: _357  and  _358
REMARK  145  A    between atoms: _357  and  _360
REMARK  146  A    between atoms: _360  and  _361
REMARK  147  A    between atoms: _366  and  _368
REMARK  148  A    between atoms: _368  and  _369
REMARK  149  A    between atoms: _368  and  _371
REMARK  150  A    between atoms: _373  and  _375
REMARK  151  A    between atoms: _375  and  _376
REMARK  152  A    between atoms: _375  and  _378
REMARK  153  A    between atoms: _378  and  _379
REMARK  154  A    between atoms: _379  and  _380
REMARK  155  A    between atoms: _382  and  _384
REMARK  156  A    between atoms: _384  and  _385
REMARK  157  A    between atoms: _384  and  _387
REMARK  158  A    between atoms: _387  and  _388
REMARK  159  A    between atoms: _391  and  _393
REMARK  160  A    between atoms: _393  and  _394
REMARK  161  A    between atoms: _393  and  _396
REMARK  162  A    between atoms: _396  and  _397
REMARK  163  A    between atoms: _400  and  _402
REMARK  164  A    between atoms: _402  and  _403
REMARK  165  A    between atoms: _402  and  _405
REMARK  166  A    between atoms: _405  and  _406
REMARK  167  A    between atoms: _406  and  _407
REMARK  168  A    between atoms: _407  and  _408
REMARK  169  A    between atoms: _408  and  _409
REMARK  170  A    between atoms: _413  and  _415
REMARK  171  A    between atoms: _415  and  _416
REMARK  172  A    between atoms: _415  and  _418
REMARK  173  A    between atoms: _421  and  _423
REMARK  174  A    between atoms: _423  and  _424
REMARK  175  A    between atoms: _427  and  _429
REMARK  176  A    between atoms: _429  and  _430
REMARK  177  A    between atoms: _429  and  _432
REMARK  178  A    between atoms: _432  and  _433
REMARK  179  A    between atoms: _436  and  _438
REMARK  180  A    between atoms: _438  and  _439
REMARK  181  A    between atoms: _438  and  _441
REMARK  182  A    between atoms: _441  and  _442
REMARK  183  A    between atoms: _448  and  _450
REMARK  184  A    between atoms: _450  and  _451
REMARK  185  A    between atoms: _450  and  _453
REMARK  186  A    between atoms: _453  and  _454
REMARK  187  A    between atoms: _457  and  _459
REMARK  188  A    between atoms: _459  and  _460
REMARK  189  A    between atoms: _463  and  _465
REMARK  190  A    between atoms: _465  and  _466
REMARK  191  A    between atoms: _465  and  _468
REMARK  192  A    between atoms: _468  and  _469
REMARK  193  A    between atoms: _469  and  _470
REMARK  194  A    between atoms: _470  and  _471
REMARK  195  A    between atoms: _480  and  _482
REMARK  196  A    between atoms: _482  and  _483
REMARK  197  A    between atoms: _482  and  _485
REMARK  198  A    between atoms: _485  and  _486
REMARK  199  A    between atoms: _489  and  _491
REMARK  200  A    between atoms: _491  and  _492
REMARK  201  A    between atoms: _491  and  _494
REMARK  202  A    between atoms: _494  and  _495
REMARK  203  A    between atoms: _495  and  _496
REMARK  204  A    between atoms: _498  and  _500
REMARK  205  A    between atoms: _500  and  _501
REMARK  206  A    between atoms: _500  and  _503
REMARK  207  A    between atoms: _503  and  _504
REMARK  208  A    between atoms: _509  and  _510
REMARK  209  A    between atoms: _512  and  _514
REMARK  210  A    between atoms: _514  and  _515
REMARK  211  A    between atoms: _514  and  _517
REMARK  212  A    between atoms: _517  and  _518
REMARK  213  A    between atoms: _521  and  _523
REMARK  214  A    between atoms: _523  and  _524
REMARK  215  A    between atoms: _523  and  _526
REMARK  216  A    between atoms: _526  and  _527
REMARK  217  A    between atoms: _532  and  _533
REMARK                            x       y       z     vdW  Elec       q    Type
REMARK                         _______ _______ _______ _____ _____    ______ ____
ROOT
ATOM      1  CA  TYR A   3      21.970   1.531  44.553  0.00  0.00    +0.153 C 
ENDROOT
BRANCH   1   4
ATOM      2  C   VAL A   2      20.087   3.099  44.495  0.00  0.00    +0.241 C 
ATOM      3  O   VAL A   2      20.222   3.413  45.681  0.00  0.00    -0.273 OA
ATOM      4  N   TYR A   3      20.897   2.251  43.858  0.00  0.00    -0.297 N 
ATOM      5  H   TYR A   3      20.764   2.096  42.838  0.00  0.00    +0.150 HD
BRANCH   2   6
ATOM      6  CA  VAL A   2      18.957   3.701  43.680  0.00  0.00    +0.148 C 
BRANCH   6   8
ATOM      7  C   CYS A   1      16.721   2.928  44.300  0.00  0.00    +0.239 C 
ATOM      8  N   VAL A   2      17.766   3.722  44.517  0.00  0.00    -0.297 N 
ATOM      9  H   VAL A   2      17.731   4.385  45.317  0.00  0.00    +0.150 HD
ATOM     10  O   CYS A   1      16.627   2.184  43.327  0.00  0.00    -0.274 OA
BRANCH   7  11
ATOM     11  CA  CYS A   1      15.611   2.998  45.341  0.00  0.00    +0.156 C 
BRANCH  11  12
ATOM     12  N   CYS A   1      14.399   2.314  44.910  0.00  0.00    -0.237 NA
ATOM     13  H   CYS A   1      14.246   1.324  45.190  0.00  0.00    +0.142 HD
ENDBRANCH  11  12
BRANCH  11  14
ATOM     14  CB  CYS A   1      16.117   2.405  46.653  0.00  0.00    +0.095 C 
ATOM     15  SG  CYS A   1      15.129   2.854  48.081  0.00  0.00    -0.080 S 
ENDBRANCH  11  14
ENDBRANCH   7  11
ENDBRANCH   6   8
BRANCH   6  16
ATOM     16  CB  VAL A   2      19.388   5.121  43.269  0.00  0.00    +0.027 C 
ATOM     17  CG2 VAL A   2      18.202   5.887  42.697  0.00  0.00    +0.002 C 
ATOM     18  CG1 VAL A   2      20.528   5.040  42.264  0.00  0.00    +0.002 C 
ENDBRANCH   6  16
ENDBRANCH   2   6
ENDBRANCH   1   4
BRANCH   1  19
ATOM     19  C   TYR A   3      23.337   1.660  43.880  0.00  0.00    +0.241 C 
ATOM     20  N   HIS A   4      24.392   1.587  44.689  0.00  0.00    -0.298 N 
ATOM     21  H   HIS A   4      24.248   1.692  45.714  0.00  0.00    +0.150 HD
ATOM     22  O   TYR A   3      23.430   1.817  42.662  0.00  0.00    -0.273 OA
BRANCH  20  23
ATOM     23  CA  HIS A   4      25.744   1.365  44.185  0.00  0.00    +0.143 C 
BRANCH  23  24
ATOM     24  C   HIS A   4      25.780   0.019  43.466  0.00  0.00    +0.227 C 
ATOM     25  O   HIS A   4      25.396  -1.003  44.035  0.00  0.00    -0.286 OA
ENDBRANCH  23  24
BRANCH  23  26
ATOM     26  CB  HIS A   4      26.754   1.334  45.342  0.00  0.00    +0.075 C 
BRANCH  26  27
ATOM     27  CG  HIS A   4      27.363   2.666  45.665  0.00  0.00    +0.082 A 
ATOM     28  ND1 HIS A   4      27.418   3.169  46.948  0.00  0.00    -0.227 NA
ATOM     29  CE1 HIS A   4      28.031   4.340  46.935  0.00  0.00    +0.199 A 
ATOM     30  NE2 HIS A   4      28.375   4.616  45.690  0.00  0.00    -0.221 NA
ATOM     31  CD2 HIS A   4      27.968   3.586  44.876  0.00  0.00    +0.115 A 
ENDBRANCH  26  27
ENDBRANCH  23  26
ENDBRANCH  20  23
ENDBRANCH   1  19
BRANCH   1  32
ATOM     32  CB  TYR A   3      21.624   0.041  44.665  0.00  0.00    +0.055 C 
BRANCH  32  33
ATOM     33  CG  TYR A   3      20.340  -0.236  45.409  0.00  0.00    -0.020 A 
ATOM     34  CD2 TYR A   3      20.311  -0.262  46.796  0.00  0.00    -0.001 A 
ATOM     35  CE2 TYR A   3      19.135  -0.498  47.481  0.00  0.00    +0.036 A 
ATOM     36  CZ  TYR A   3      17.968  -0.717  46.777  0.00  0.00    +0.134 A 
ATOM     37  CE1 TYR A   3      17.971  -0.701  45.398  0.00  0.00    +0.036 A 
ATOM     38  CD1 TYR A   3      19.154  -0.460  44.722  0.00  0.00    -0.001 A 
BRANCH  36  39
ATOM     39  OH  TYR A   3      16.790  -0.941  47.456  0.00  0.00    -0.506 OA
ATOM     40  HH  TYR A   3      16.963  -0.920  48.431  0.00  0.00    +0.292 HD
ENDBRANCH  36  39
ENDBRANCH  32  33
ENDBRANCH   1  32
TORSDOF 15
REMARK  Name = ../refined-set-2016/3zbx/3zbx_pocket.pdb
REMARK  217 active torsions:
REMARK  status: ('A' for Active; 'I' for Inactive)
REMARK    1  A    between atoms: _1  and  _3
REMARK    2  A    between atoms: _3  and  _4
REMARK    3  A    between atoms: _3  and  _6
REMARK    4  A    between atoms: _9  and  _11
REMARK    5  A    between atoms: _11  and  _12
REMARK    6  A    between atoms: _11  and  _14
REMARK    7  A    between atoms: _14  and  _15
REMARK    8  A    between atoms: _18  and  _20
REMARK    9  A    between atoms: _20  and  _21
REMARK   10  A    between atoms: _23  and  _25
REMARK   11  A    between atoms: _25  and  _26
REMARK   12  A    between atoms: _25  and  _28
REMARK   13  A    between atoms: _28  and  _29
REMARK   14  A    between atoms: _29  and  _30
REMARK   15  A    between atoms: _30  and  _31
REMARK   16  A    between atoms: _40  and  _42
REMARK   17  A    between atoms: _42  and  _43
REMARK   18  A    between atoms: _45  and  _47
REMARK   19  A    between atoms: _47  and  _48
REMARK   20  A    between atoms: _47  and  _50
REMARK   21  A    between atoms: _52  and  _54
REMARK   22  A    between atoms: _54  and  _55
REMARK   23  A    between atoms: _54  and  _57
REMARK   24  A    between atoms: _60  and  _62
REMARK   25  A    between atoms: _62  and  _63
REMARK   26  A    between atoms: _62  and  _65
REMARK   27  A    between atoms: _65  and  _66
REMARK   28  A    between atoms: _71  and  _72
REMARK   29  A    between atoms: _74  and  _76
REMARK   30  A    between atoms: _76  and  _77
REMARK   31  A    between atoms: _76  and  _79
REMARK   32  A    between atoms: _79  and  _80
REMARK   33  A    between atoms: _85  and  _87
REMARK   34  A    between atoms: _87  and  _88
REMARK   35  A    between atoms: _87  and  _90
REMARK   36  A    between atoms: _90  and  _91
REMARK   37  A    between atoms: _96  and  _98
REMARK   38  A    between atoms: _98  and  _99
REMARK   39  A    between atoms: _98  and  _101
REMARK   40  A    between atoms: _103  and  _105
REMARK   41  A    between atoms: _105  and  _106
REMARK   42  A    between atoms: _109  and  _111
REMARK   43  A    between atoms: _111  and  _112
REMARK   44  A    between atoms: _111  and  _114
REMARK   45  A    between atoms: _117  and  _119
REMARK   46  A    between atoms: _119  and  _120
REMARK   47  A    between atoms: _119  and  _122
REMARK   48  A    between atoms: _122  and  _123
REMARK   49  A    between atoms: _123  and  _124
REMARK   50  A    between atoms: _124  and  _125
REMARK   51  A    between atoms: _125  and  _126
REMARK   52  A    between atoms: _130  and  _132
REMARK   53  A    between atoms: _132  and  _133
REMARK   54  A    between atoms: _132  and  _135
REMARK   55  A    between atoms: _135  and  _136
REMARK   56  A    between atoms: _138  and  _140
REMARK   57  A    between atoms: _140  and  _141
REMARK   58  A    between atoms: _140  and  _143
REMARK   59  A    between atoms: _143  and  _144
REMARK   60  A    between atoms: _144  and  _145
REMARK   61  A    between atoms: _147  and  _149
REMARK   62  A    between atoms: _149  and  _150
REMARK   63  A    between atoms: _149  and  _152
REMARK   64  A    between atoms: _152  and  _153
REMARK   65  A    between atoms: _156  and  _158
REMARK   66  A    between atoms: _158  and  _159
REMARK   67  A    between atoms: _158  and  _161
REMARK   68  A    between atoms: _161  and  _162
REMARK   69  A    between atoms: _164  and  _166
REMARK   70  A    between atoms: _166  and  _167
REMARK   71  A    between atoms: _166  and  _169
REMARK   72  A    between atoms: _172  and  _174
REMARK   73  A    between atoms: _174  and  _175
REMARK   74  A    between atoms: _174  and  _177
REMARK   75  A    between atoms: _180  and  _182
REMARK   76  A    between atoms: _182  and  _183
REMARK   77  A    between atoms: _182  and  _185
REMARK   78  A    between atoms: _185  and  _186
REMARK   79  A    between atoms: _190  and  _191
REMARK   80  A    between atoms: _196  and  _198
REMARK   81  A    between atoms: _198  and  _199
REMARK   82  A    between atoms: _198  and  _201
REMARK   83  A    between atoms: _201  and  _202
REMARK   84  A    between atoms: _207  and  _208
REMARK   85  A    between atoms: _210  and  _212
REMARK   86  A    between atoms: _212  and  _213
REMARK   87  A    between atoms: _212  and  _215
REMARK   88  A    between atoms: _215  and  _216
REMARK   89  A    between atoms: _216  and  _217
REMARK   90  A    between atoms: _219  and  _221
REMARK   91  A    between atoms: _221  and  _222
REMARK   92  A    between atoms: _221  and  _224
REMARK   93  A    between atoms: _224  and  _225
REMARK   94  A    between atoms: _225  and  _226
REMARK   95  A    between atoms: _226  and  _227
REMARK   96  A    between atoms: _227  and  _228
REMARK   97  A    between atoms: _232  and  _234
REMARK   98  A    between atoms: _234  and  _235
REMARK   99  A    between atoms: _234  and  _237
REMARK  100  A    between atoms: _237  and  _238
REMARK  101  A    between atoms: _243  and  _245
REMARK  102  A    between atoms: _245  and  _246
REMARK  103  A    between atoms: _248  and  _250
REMARK  104  A    between atoms: _250  and  _251
REMARK  105  A    between atoms: _250  and  _253
REMARK  106  A    between atoms: _253  and  _254
REMARK  107  A    between atoms: _257  and  _259
REMARK  108  A    between atoms: _259  and  _260
REMARK  109  A    between atoms: _259  and  _262
REMARK  110  A    between atoms: _262  and  _263
REMARK  111  A    between atoms: _266  and  _268
REMARK  112  A    between atoms: _268  and  _269
REMARK  113  A    between atoms: _268  and  _271
REMARK  114  A    between atoms: _271  and  _272
REMARK  115  A    between atoms: _272  and  _273
REMARK  116  A    between atoms: _273  and  _274
REMARK  117  A    between atoms: _283  and  _285
REMARK  118  A    between atoms: _285  and  _286
REMARK  119  A    between atoms: _285  and  _288
REMARK  120  A    between atoms: _288  and  _289
REMARK  121  A    between atoms: _294  and  _296
REMARK  122  A    between atoms: _296  and  _297
REMARK  123  A    between atoms: _296  and  _299
REMARK  124  A    between atoms: _299  and  _300
REMARK  125  A    between atoms: _306  and  _308
REMARK  126  A    between atoms: _308  and  _309
REMARK  127  A    between atoms: _308  and  _311
REMARK  128  A    between atoms: _311  and  _312
REMARK  129  A    between atoms: _317  and  _319
REMARK  130  A    between atoms: _319  and  _320
REMARK  131  A    between atoms: _319  and  _322
REMARK  132  A    between atoms: _322  and  _323
REMARK  133  A    between atoms: _326  and  _328
REMARK  134  A    between atoms: _328  and  _329
REMARK  135  A    between atoms: _332  and  _334
REMARK  136  A    between atoms: _334  and  _335
REMARK  137  A    between atoms: _338  and  _340
REMARK  138  A    between atoms: _340  and  _341
REMARK  139  A    between atoms: _340  and  _343
REMARK  140  A    between atoms: _343  and  _344
REMARK  141  A    between atoms: _344  and  _345
REMARK  142  A    between atoms: _345  and  _346
REMARK  143  A    between atoms: _355  and  _357
REMARK  144  A    between atoms: _357  and  _358
REMARK  145  A    between atoms: _357  and  _360
REMARK  146  A    between atoms: _360  and  _361
REMARK  147  A    between atoms: _366  and  _368
REMARK  148  A    between atoms: _368  and  _369
REMARK  149  A    between atoms: _368  and  _371
REMARK  150  A    between atoms: _373  and  _375
REMARK  151  A    between atoms: _375  and  _376
REMARK  152  A    between atoms: _375  and  _378
REMARK  153  A    between atoms: _378  and  _379
REMARK  154  A    between atoms: _379  and  _380
REMARK  155  A    between atoms: _382  and  _384
REMARK  156  A    between atoms: _384  and  _385
REMARK  157  A    between atoms: _384  and  _387
REMARK  158  A    between atoms: _387  and  _388
REMARK  159  A    between atoms: _391  and  _393
REMARK  160  A    between atoms: _393  and  _394
REMARK  161  A    between atoms: _393  and  _396
REMARK  162  A    between atoms: _396  and  _397
REMARK  163  A    between atoms: _400  and  _402
REMARK  164  A    between atoms: _402  and  _403
REMARK  165  A    between atoms: _402  and  _405
REMARK  166  A    between atoms: _405  and  _406
REMARK  167  A    between atoms: _406  and  _407
REMARK  168  A    between atoms: _407  and  _408
REMARK  169  A    between atoms: _408  and  _409
REMARK  170  A    between atoms: _413  and  _415
REMARK  171  A    between atoms: _415  and  _416
REMARK  172  A    between atoms: _415  and  _418
REMARK  173  A    between atoms: _421  and  _423
REMARK  174  A    between atoms: _423  and  _424
REMARK  175  A    between atoms: _427  and  _429
REMARK  176  A    between atoms: _429  and  _430
REMARK  177  A    between atoms: _429  and  _432
REMARK  178  A    between atoms: _432  and  _433
REMARK  179  A    between atoms: _436  and  _438
REMARK  180  A    between atoms: _438  and  _439
REMARK  181  A    between atoms: _438  and  _441
REMARK  182  A    between atoms: _441  and  _442
REMARK  183  A    between atoms: _448  and  _450
REMARK  184  A    between atoms: _450  and  _451
REMARK  185  A    between atoms: _450  and  _453
REMARK  186  A    between atoms: _453  and  _454
REMARK  187  A    between atoms: _457  and  _459
REMARK  188  A    between atoms: _459  and  _460
REMARK  189  A    between atoms: _463  and  _465
REMARK  190  A    between atoms: _465  and  _466
REMARK  191  A    between atoms: _465  and  _468
REMARK  192  A    between atoms: _468  and  _469
REMARK  193  A    between atoms: _469  and  _470
REMARK  194  A    between atoms: _470  and  _471
REMARK  195  A    between atoms: _480  and  _482
REMARK  196  A    between atoms: _482  and  _483
REMARK  197  A    between atoms: _482  and  _485
REMARK  198  A    between atoms: _485  and  _486
REMARK  199  A    between atoms: _489  and  _491
REMARK  200  A    between atoms: _491  and  _492
REMARK  201  A    between atoms: _491  and  _494
REMARK  202  A    between atoms: _494  and  _495
REMARK  203  A    between atoms: _495  and  _496
REMARK  204  A    between atoms: _498  and  _500
REMARK  205  A    between atoms: _500  and  _501
REMARK  206  A    between atoms: _500  and  _503
REMARK  207  A    between atoms: _503  and  _504
REMARK  208  A    between atoms: _509  and  _510
REMARK  209  A    between atoms: _512  and  _514
REMARK  210  A    between atoms: _514  and  _515
REMARK  211  A    between atoms: _514  and  _517
REMARK  212  A    between atoms: _517  and  _518
REMARK  213  A    between atoms: _521  and  _523
REMARK  214  A    between atoms: _523  and  _524
REMARK  215  A    between atoms: _523  and  _526
REMARK  216  A    between atoms: _526  and  _527
REMARK  217  A    between atoms: _532  and  _533
REMARK                            x       y       z     vdW  Elec       q    Type
REMARK                         _______ _______ _______ _____ _____    ______ ____
ROOT
ATOM      1  CA  VAL A   4      21.350   0.981  39.611  0.00  0.00    +0.149 C 
ENDROOT
BRANCH   1   3
ATOM      2  C   ALA A   3      22.941   2.753  39.126  0.00  0.00    +0.241 C 
ATOM      3  N   VAL A   4      22.382   1.925  40.001  0.00  0.00    -0.297 N 
ATOM      4  H   VAL A   4      22.692   1.954  40.993  0.00  0.00    +0.150 HD
ATOM      5  O   ALA A   3      22.558   2.856  37.960  0.00  0.00    -0.273 OA
BRANCH   2   6
ATOM      6  CA  ALA A   3      24.101   3.593  39.645  0.00  0.00    +0.149 C 
ATOM      7  CB  ALA A   3      23.703   5.049  39.689  0.00  0.00    +0.031 C 
BRANCH   6  10
ATOM      8  C   CYS A   2      26.367   2.810  39.191  0.00  0.00    +0.242 C 
ATOM      9  O   CYS A   2      26.536   2.415  40.344  0.00  0.00    -0.273 OA
ATOM     10  N   ALA A   3      25.259   3.422  38.782  0.00  0.00    -0.297 N 
ATOM     11  H   ALA A   3      25.219   3.791  37.811  0.00  0.00    +0.150 HD
BRANCH   8  12
ATOM     12  CA  CYS A   2      27.442   2.624  38.128  0.00  0.00    +0.160 C 
BRANCH  12  14
ATOM     13  C   HIS A   1      29.867   2.604  38.258  0.00  0.00    +0.239 C 
ATOM     14  N   CYS A   2      28.698   2.125  38.671  0.00  0.00    -0.296 N 
ATOM     15  H   CYS A   2      28.680   1.379  39.396  0.00  0.00    +0.150 HD
ATOM     16  O   HIS A   1      29.956   3.560  37.493  0.00  0.00    -0.274 OA
BRANCH  13  17
ATOM     17  CA  HIS A   1      31.120   1.897  38.779  0.00  0.00    +0.151 C 
BRANCH  17  18
ATOM     18  N   HIS A   1      31.965   1.517  37.654  0.00  0.00    -0.238 NA
ATOM     19  H   HIS A   1      32.790   2.105  37.420  0.00  0.00    +0.142 HD
ENDBRANCH  17  18
BRANCH  17  20
ATOM     20  CB  HIS A   1      31.912   2.814  39.719  0.00  0.00    +0.074 C 
BRANCH  20  21
ATOM     21  CG  HIS A   1      31.160   3.237  40.943  0.00  0.00    +0.082 A 
ATOM     22  ND1 HIS A   1      31.690   4.102  41.877  0.00  0.00    -0.227 NA
ATOM     23  CE1 HIS A   1      30.808   4.305  42.839  0.00  0.00    +0.199 A 
ATOM     24  NE2 HIS A   1      29.724   3.601  42.564  0.00  0.00    -0.221 NA
ATOM     25  CD2 HIS A   1      29.918   2.923  41.385  0.00  0.00    +0.115 A 
ENDBRANCH  20  21
ENDBRANCH  17  20
ENDBRANCH  13  17
ENDBRANCH  12  14
BRANCH  12  26
ATOM     26  CB  CYS A   2      26.925   1.671  37.046  0.00  0.00    +0.098 C 
ATOM     27  SG  CYS A   2      26.535   0.009  37.648  0.00  0.00    -0.080 S 
ENDBRANCH  12  26
ENDBRANCH   8  12
ENDBRANCH   6  10
ENDBRANCH   2   6
ENDBRANCH   1   3
BRANCH   1  28
ATOM     28  C   VAL A   4      20.002   1.418  40.176  0.00  0.00    +0.241 C 
ATOM     29  O   VAL A   4      19.787   1.401  41.388  0.00  0.00    -0.273 OA
ATOM     30  N   LYS A   5      19.096   1.815  39.288  0.00  0.00    -0.297 N 
ATOM     31  H   LYS A   5      19.338   1.807  38.277  0.00  0.00    +0.150 HD
BRANCH  30  32
ATOM     32  CA  LYS A   5      17.771   2.261  39.699  0.00  0.00    +0.149 C 
BRANCH  32  33
ATOM     33  C   LYS A   5      16.780   1.101  39.674  0.00  0.00    +0.241 C 
ATOM     34  N   SER A   6      16.176   0.825  40.825  0.00  0.00    -0.296 N 
ATOM     35  H   SER A   6      16.426   1.373  41.673  0.00  0.00    +0.150 HD
ATOM     36  O   LYS A   5      16.570   0.470  38.638  0.00  0.00    -0.273 OA
BRANCH  34  37
ATOM     37  CA  SER A   6      15.171  -0.227  40.930  0.00  0.00    +0.166 C 
BRANCH  37  38
ATOM     38  C   SER A   6      13.789   0.260  40.492  0.00  0.00    +0.229 C 
ATOM     39  O   SER A   6      13.388   1.386  40.793  0.00  0.00    -0.286 OA
ENDBRANCH  37  38
BRANCH  37  40
ATOM     40  CB  SER A   6      15.107  -0.736  42.369  0.00  0.00    +0.165 C 
BRANCH  40  41
ATOM     41  OG  SER A   6      13.947  -1.517  42.583  0.00  0.00    -0.380 OA
ATOM     42  H   SER A   6      13.932  -1.833  43.521  0.00  0.00    +0.211 HD
ENDBRANCH  40  41
ENDBRANCH  37  40
ENDBRANCH  34  37
ENDBRANCH  32  33
BRANCH  32  43
ATOM     43  CB  LYS A   5      17.288   3.389  38.777  0.00  0.00    +0.029 C 
BRANCH  43  44
ATOM     44  CG  LYS A   5      15.823   3.788  38.959  0.00  0.00    +0.000 C 
BRANCH  44  45
ATOM     45  CD  LYS A   5      15.552   4.314  40.360  0.00  0.00    -0.024 C 
BRANCH  45  46
ATOM     46  CE  LYS A   5      14.414   5.331  40.374  0.00  0.00    -0.086 C 
BRANCH  46  47
ATOM     47  NZ  LYS A   5      13.153   4.800  39.790  0.00  0.00    +0.380 N 
ATOM     48  HZ1 LYS A   5      12.843   3.970  40.335  0.00  0.00    -0.089 HD
ATOM     49  HZ2 LYS A   5      12.418   5.535  39.828  0.00  0.00    -0.089 HD
ATOM     50  HZ3 LYS A   5      13.319   4.525  38.801  0.00  0.00    -0.089 HD
ENDBRANCH  46  47
ENDBRANCH  45  46
ENDBRANCH  44  45
ENDBRANCH  43  44
ENDBRANCH  32  43
ENDBRANCH  30  32
ENDBRANCH   1  28
BRANCH   1  51
ATOM     51  CB  VAL A   4      21.702  -0.442  40.120  0.00  0.00    +0.027 C 
ATOM     52  CG2 VAL A   4      20.628  -1.446  39.698  0.00  0.00    +0.002 C 
ATOM     53  CG1 VAL A   4      23.063  -0.857  39.573  0.00  0.00    +0.002 C 
ENDBRANCH   1  51
TORSDOF 23
REMARK  Name = ../refined-set-2016/3zbx/3zbx_pocket.pdb
REMARK  217 active torsions:
REMARK  status: ('A' for Active; 'I' for Inactive)
REMARK    1  A    between atoms: _1  and  _3
REMARK    2  A    between atoms: _3  and  _4
REMARK    3  A    between atoms: _3  and  _6
REMARK    4  A    between atoms: _9  and  _11
REMARK    5  A    between atoms: _11  and  _12
REMARK    6  A    between atoms: _11  and  _14
REMARK    7  A    between atoms: _14  and  _15
REMARK    8  A    between atoms: _18  and  _20
REMARK    9  A    between atoms: _20  and  _21
REMARK   10  A    between atoms: _23  and  _25
REMARK   11  A    between atoms: _25  and  _26
REMARK   12  A    between atoms: _25  and  _28
REMARK   13  A    between atoms: _28  and  _29
REMARK   14  A    between atoms: _29  and  _30
REMARK   15  A    between atoms: _30  and  _31
REMARK   16  A    between atoms: _40  and  _42
REMARK   17  A    between atoms: _42  and  _43
REMARK   18  A    between atoms: _45  and  _47
REMARK   19  A    between atoms: _47  and  _48
REMARK   20  A    between atoms: _47  and  _50
REMARK   21  A    between atoms: _52  and  _54
REMARK   22  A    between atoms: _54  and  _55
REMARK   23  A    between atoms: _54  and  _57
REMARK   24  A    between atoms: _60  and  _62
REMARK   25  A    between atoms: _62  and  _63
REMARK   26  A    between atoms: _62  and  _65
REMARK   27  A    between atoms: _65  and  _66
REMARK   28  A    between atoms: _71  and  _72
REMARK   29  A    between atoms: _74  and  _76
REMARK   30  A    between atoms: _76  and  _77
REMARK   31  A    between atoms: _76  and  _79
REMARK   32  A    between atoms: _79  and  _80
REMARK   33  A    between atoms: _85  and  _87
REMARK   34  A    between atoms: _87  and  _88
REMARK   35  A    between atoms: _87  and  _90
REMARK   36  A    between atoms: _90  and  _91
REMARK   37  A    between atoms: _96  and  _98
REMARK   38  A    between atoms: _98  and  _99
REMARK   39  A    between atoms: _98  and  _101
REMARK   40  A    between atoms: _103  and  _105
REMARK   41  A    between atoms: _105  and  _106
REMARK   42  A    between atoms: _109  and  _111
REMARK   43  A    between atoms: _111  and  _112
REMARK   44  A    between atoms: _111  and  _114
REMARK   45  A    between atoms: _117  and  _119
REMARK   46  A    between atoms: _119  and  _120
REMARK   47  A    between atoms: _119  and  _122
REMARK   48  A    between atoms: _122  and  _123
REMARK   49  A    between atoms: _123  and  _124
REMARK   50  A    between atoms: _124  and  _125
REMARK   51  A    between atoms: _125  and  _126
REMARK   52  A    between atoms: _130  and  _132
REMARK   53  A    between atoms: _132  and  _133
REMARK   54  A    between atoms: _132  and  _135
REMARK   55  A    between atoms: _135  and  _136
REMARK   56  A    between atoms: _138  and  _140
REMARK   57  A    between atoms: _140  and  _141
REMARK   58  A    between atoms: _140  and  _143
REMARK   59  A    between atoms: _143  and  _144
REMARK   60  A    between atoms: _144  and  _145
REMARK   61  A    between atoms: _147  and  _149
REMARK   62  A    between atoms: _149  and  _150
REMARK   63  A    between atoms: _149  and  _152
REMARK   64  A    between atoms: _152  and  _153
REMARK   65  A    between atoms: _156  and  _158
REMARK   66  A    between atoms: _158  and  _159
REMARK   67  A    between atoms: _158  and  _161
REMARK   68  A    between atoms: _161  and  _162
REMARK   69  A    between atoms: _164  and  _166
REMARK   70  A    between atoms: _166  and  _167
REMARK   71  A    between atoms: _166  and  _169
REMARK   72  A    between atoms: _172  and  _174
REMARK   73  A    between atoms: _174  and  _175
REMARK   74  A    between atoms: _174  and  _177
REMARK   75  A    between atoms: _180  and  _182
REMARK   76  A    between atoms: _182  and  _183
REMARK   77  A    between atoms: _182  and  _185
REMARK   78  A    between atoms: _185  and  _186
REMARK   79  A    between atoms: _190  and  _191
REMARK   80  A    between atoms: _196  and  _198
REMARK   81  A    between atoms: _198  and  _199
REMARK   82  A    between atoms: _198  and  _201
REMARK   83  A    between atoms: _201  and  _202
REMARK   84  A    between atoms: _207  and  _208
REMARK   85  A    between atoms: _210  and  _212
REMARK   86  A    between atoms: _212  and  _213
REMARK   87  A    between atoms: _212  and  _215
REMARK   88  A    between atoms: _215  and  _216
REMARK   89  A    between atoms: _216  and  _217
REMARK   90  A    between atoms: _219  and  _221
REMARK   91  A    between atoms: _221  and  _222
REMARK   92  A    between atoms: _221  and  _224
REMARK   93  A    between atoms: _224  and  _225
REMARK   94  A    between atoms: _225  and  _226
REMARK   95  A    between atoms: _226  and  _227
REMARK   96  A    between atoms: _227  and  _228
REMARK   97  A    between atoms: _232  and  _234
REMARK   98  A    between atoms: _234  and  _235
REMARK   99  A    between atoms: _234  and  _237
REMARK  100  A    between atoms: _237  and  _238
REMARK  101  A    between atoms: _243  and  _245
REMARK  102  A    between atoms: _245  and  _246
REMARK  103  A    between atoms: _248  and  _250
REMARK  104  A    between atoms: _250  and  _251
REMARK  105  A    between atoms: _250  and  _253
REMARK  106  A    between atoms: _253  and  _254
REMARK  107  A    between atoms: _257  and  _259
REMARK  108  A    between atoms: _259  and  _260
REMARK  109  A    between atoms: _259  and  _262
REMARK  110  A    between atoms: _262  and  _263
REMARK  111  A    between atoms: _266  and  _268
REMARK  112  A    between atoms: _268  and  _269
REMARK  113  A    between atoms: _268  and  _271
REMARK  114  A    between atoms: _271  and  _272
REMARK  115  A    between atoms: _272  and  _273
REMARK  116  A    between atoms: _273  and  _274
REMARK  117  A    between atoms: _283  and  _285
REMARK  118  A    between atoms: _285  and  _286
REMARK  119  A    between atoms: _285  and  _288
REMARK  120  A    between atoms: _288  and  _289
REMARK  121  A    between atoms: _294  and  _296
REMARK  122  A    between atoms: _296  and  _297
REMARK  123  A    between atoms: _296  and  _299
REMARK  124  A    between atoms: _299  and  _300
REMARK  125  A    between atoms: _306  and  _308
REMARK  126  A    between atoms: _308  and  _309
REMARK  127  A    between atoms: _308  and  _311
REMARK  128  A    between atoms: _311  and  _312
REMARK  129  A    between atoms: _317  and  _319
REMARK  130  A    between atoms: _319  and  _320
REMARK  131  A    between atoms: _319  and  _322
REMARK  132  A    between atoms: _322  and  _323
REMARK  133  A    between atoms: _326  and  _328
REMARK  134  A    between atoms: _328  and  _329
REMARK  135  A    between atoms: _332  and  _334
REMARK  136  A    between atoms: _334  and  _335
REMARK  137  A    between atoms: _338  and  _340
REMARK  138  A    between atoms: _340  and  _341
REMARK  139  A    between atoms: _340  and  _343
REMARK  140  A    between atoms: _343  and  _344
REMARK  141  A    between atoms: _344  and  _345
REMARK  142  A    between atoms: _345  and  _346
REMARK  143  A    between atoms: _355  and  _357
REMARK  144  A    between atoms: _357  and  _358
REMARK  145  A    between atoms: _357  and  _360
REMARK  146  A    between atoms: _360  and  _361
REMARK  147  A    between atoms: _366  and  _368
REMARK  148  A    between atoms: _368  and  _369
REMARK  149  A    between atoms: _368  and  _371
REMARK  150  A    between atoms: _373  and  _375
REMARK  151  A    between atoms: _375  and  _376
REMARK  152  A    between atoms: _375  and  _378
REMARK  153  A    between atoms: _378  and  _379
REMARK  154  A    between atoms: _379  and  _380
REMARK  155  A    between atoms: _382  and  _384
REMARK  156  A    between atoms: _384  and  _385
REMARK  157  A    between atoms: _384  and  _387
REMARK  158  A    between atoms: _387  and  _388
REMARK  159  A    between atoms: _391  and  _393
REMARK  160  A    between atoms: _393  and  _394
REMARK  161  A    between atoms: _393  and  _396
REMARK  162  A    between atoms: _396  and  _397
REMARK  163  A    between atoms: _400  and  _402
REMARK  164  A    between atoms: _402  and  _403
REMARK  165  A    between atoms: _402  and  _405
REMARK  166  A    between atoms: _405  and  _406
REMARK  167  A    between atoms: _406  and  _407
REMARK  168  A    between atoms: _407  and  _408
REMARK  169  A    between atoms: _408  and  _409
REMARK  170  A    between atoms: _413  and  _415
REMARK  171  A    between atoms: _415  and  _416
REMARK  172  A    between atoms: _415  and  _418
REMARK  173  A    between atoms: _421  and  _423
REMARK  174  A    between atoms: _423  and  _424
REMARK  175  A    between atoms: _427  and  _429
REMARK  176  A    between atoms: _429  and  _430
REMARK  177  A    between atoms: _429  and  _432
REMARK  178  A    between atoms: _432  and  _433
REMARK  179  A    between atoms: _436  and  _438
REMARK  180  A    between atoms: _438  and  _439
REMARK  181  A    between atoms: _438  and  _441
REMARK  182  A    between atoms: _441  and  _442
REMARK  183  A    between atoms: _448  and  _450
REMARK  184  A    between atoms: _450  and  _451
REMARK  185  A    between atoms: _450  and  _453
REMARK  186  A    between atoms: _453  and  _454
REMARK  187  A    between atoms: _457  and  _459
REMARK  188  A    between atoms: _459  and  _460
REMARK  189  A    between atoms: _463  and  _465
REMARK  190  A    between atoms: _465  and  _466
REMARK  191  A    between atoms: _465  and  _468
REMARK  192  A    between atoms: _468  and  _469
REMARK  193  A    between atoms: _469  and  _470
REMARK  194  A    between atoms: _470  and  _471
REMARK  195  A    between atoms: _480  and  _482
REMARK  196  A    between atoms: _482  and  _483
REMARK  197  A    between atoms: _482  and  _485
REMARK  198  A    between atoms: _485  and  _486
REMARK  199  A    between atoms: _489  and  _491
REMARK  200  A    between atoms: _491  and  _492
REMARK  201  A    between atoms: _491  and  _494
REMARK  202  A    between atoms: _494  and  _495
REMARK  203  A    between atoms: _495  and  _496
REMARK  204  A    between atoms: _498  and  _500
REMARK  205  A    between atoms: _500  and  _501
REMARK  206  A    between atoms: _500  and  _503
REMARK  207  A    between atoms: _503  and  _504
REMARK  208  A    between atoms: _509  and  _510
REMARK  209  A    between atoms: _512  and  _514
REMARK  210  A    between atoms: _514  and  _515
REMARK  211  A    between atoms: _514  and  _517
REMARK  212  A    between atoms: _517  and  _518
REMARK  213  A    between atoms: _521  and  _523
REMARK  214  A    between atoms: _523  and  _524
REMARK  215  A    between atoms: _523  and  _526
REMARK  216  A    between atoms: _526  and  _527
REMARK  217  A    between atoms: _532  and  _533
REMARK                            x       y       z     vdW  Elec       q    Type
REMARK                         _______ _______ _______ _____ _____    ______ ____
ROOT
ATOM      1  CA  MET A   1      16.772   7.611  26.113  0.00  0.00    +0.134 C 
ENDROOT
BRANCH   1   2
ATOM      2  N   MET A   1      15.602   7.135  25.393  0.00  0.00    -0.239 NA
ATOM      3  H   MET A   1      14.807   6.743  25.936  0.00  0.00    +0.142 HD
ENDBRANCH   1   2
BRANCH   1   4
ATOM      4  C   MET A   1      18.061   7.021  25.536  0.00  0.00    +0.224 C 
ATOM      5  O   MET A   1      19.114   7.669  25.542  0.00  0.00    -0.287 OA
ENDBRANCH   1   4
BRANCH   1   6
ATOM      6  CB  MET A   1      16.634   7.228  27.581  0.00  0.00    +0.037 C 
BRANCH   6   7
ATOM      7  CG  MET A   1      17.751   7.692  28.459  0.00  0.00    +0.059 C 
BRANCH   7   8
ATOM      8  SD  MET A   1      17.528   7.046  30.115  0.00  0.00    -0.139 S 
ATOM      9  CE  MET A   1      18.665   8.077  31.010  0.00  0.00    +0.069 C 
ENDBRANCH   7   8
ENDBRANCH   6   7
ENDBRANCH   1   6
TORSDOF 5
REMARK  Name = ../refined-set-2016/3zbx/3zbx_pocket.pdb
REMARK  217 active torsions:
REMARK  status: ('A' for Active; 'I' for Inactive)
REMARK    1  A    between atoms: _1  and  _3
REMARK    2  A    between atoms: _3  and  _4
REMARK    3  A    between atoms: _3  and  _6
REMARK    4  A    between atoms: _9  and  _11
REMARK    5  A    between atoms: _11  and  _12
REMARK    6  A    between atoms: _11  and  _14
REMARK    7  A    between atoms: _14  and  _15
REMARK    8  A    between atoms: _18  and  _20
REMARK    9  A    between atoms: _20  and  _21
REMARK   10  A    between atoms: _23  and  _25
REMARK   11  A    between atoms: _25  and  _26
REMARK   12  A    between atoms: _25  and  _28
REMARK   13  A    between atoms: _28  and  _29
REMARK   14  A    between atoms: _29  and  _30
REMARK   15  A    between atoms: _30  and  _31
REMARK   16  A    between atoms: _40  and  _42
REMARK   17  A    between atoms: _42  and  _43
REMARK   18  A    between atoms: _45  and  _47
REMARK   19  A    between atoms: _47  and  _48
REMARK   20  A    between atoms: _47  and  _50
REMARK   21  A    between atoms: _52  and  _54
REMARK   22  A    between atoms: _54  and  _55
REMARK   23  A    between atoms: _54  and  _57
REMARK   24  A    between atoms: _60  and  _62
REMARK   25  A    between atoms: _62  and  _63
REMARK   26  A    between atoms: _62  and  _65
REMARK   27  A    between atoms: _65  and  _66
REMARK   28  A    between atoms: _71  and  _72
REMARK   29  A    between atoms: _74  and  _76
REMARK   30  A    between atoms: _76  and  _77
REMARK   31  A    between atoms: _76  and  _79
REMARK   32  A    between atoms: _79  and  _80
REMARK   33  A    between atoms: _85  and  _87
REMARK   34  A    between atoms: _87  and  _88
REMARK   35  A    between atoms: _87  and  _90
REMARK   36  A    between atoms: _90  and  _91
REMARK   37  A    between atoms: _96  and  _98
REMARK   38  A    between atoms: _98  and  _99
REMARK   39  A    between atoms: _98  and  _101
REMARK   40  A    between atoms: _103  and  _105
REMARK   41  A    between atoms: _105  and  _106
REMARK   42  A    between atoms: _109  and  _111
REMARK   43  A    between atoms: _111  and  _112
REMARK   44  A    between atoms: _111  and  _114
REMARK   45  A    between atoms: _117  and  _119
REMARK   46  A    between atoms: _119  and  _120
REMARK   47  A    between atoms: _119  and  _122
REMARK   48  A    between atoms: _122  and  _123
REMARK   49  A    between atoms: _123  and  _124
REMARK   50  A    between atoms: _124  and  _125
REMARK   51  A    between atoms: _125  and  _126
REMARK   52  A    between atoms: _130  and  _132
REMARK   53  A    between atoms: _132  and  _133
REMARK   54  A    between atoms: _132  and  _135
REMARK   55  A    between atoms: _135  and  _136
REMARK   56  A    between atoms: _138  and  _140
REMARK   57  A    between atoms: _140  and  _141
REMARK   58  A    between atoms: _140  and  _143
REMARK   59  A    between atoms: _143  and  _144
REMARK   60  A    between atoms: _144  and  _145
REMARK   61  A    between atoms: _147  and  _149
REMARK   62  A    between atoms: _149  and  _150
REMARK   63  A    between atoms: _149  and  _152
REMARK   64  A    between atoms: _152  and  _153
REMARK   65  A    between atoms: _156  and  _158
REMARK   66  A    between atoms: _158  and  _159
REMARK   67  A    between atoms: _158  and  _161
REMARK   68  A    between atoms: _161  and  _162
REMARK   69  A    between atoms: _164  and  _166
REMARK   70  A    between atoms: _166  and  _167
REMARK   71  A    between atoms: _166  and  _169
REMARK   72  A    between atoms: _172  and  _174
REMARK   73  A    between atoms: _174  and  _175
REMARK   74  A    between atoms: _174  and  _177
REMARK   75  A    between atoms: _180  and  _182
REMARK   76  A    between atoms: _182  and  _183
REMARK   77  A    between atoms: _182  and  _185
REMARK   78  A    between atoms: _185  and  _186
REMARK   79  A    between atoms: _190  and  _191
REMARK   80  A    between atoms: _196  and  _198
REMARK   81  A    between atoms: _198  and  _199
REMARK   82  A    between atoms: _198  and  _201
REMARK   83  A    between atoms: _201  and  _202
REMARK   84  A    between atoms: _207  and  _208
REMARK   85  A    between atoms: _210  and  _212
REMARK   86  A    between atoms: _212  and  _213
REMARK   87  A    between atoms: _212  and  _215
REMARK   88  A    between atoms: _215  and  _216
REMARK   89  A    between atoms: _216  and  _217
REMARK   90  A    between atoms: _219  and  _221
REMARK   91  A    between atoms: _221  and  _222
REMARK   92  A    between atoms: _221  and  _224
REMARK   93  A    between atoms: _224  and  _225
REMARK   94  A    between atoms: _225  and  _226
REMARK   95  A    between atoms: _226  and  _227
REMARK   96  A    between atoms: _227  and  _228
REMARK   97  A    between atoms: _232  and  _234
REMARK   98  A    between atoms: _234  and  _235
REMARK   99  A    between atoms: _234  and  _237
REMARK  100  A    between atoms: _237  and  _238
REMARK  101  A    between atoms: _243  and  _245
REMARK  102  A    between atoms: _245  and  _246
REMARK  103  A    between atoms: _248  and  _250
REMARK  104  A    between atoms: _250  and  _251
REMARK  105  A    between atoms: _250  and  _253
REMARK  106  A    between atoms: _253  and  _254
REMARK  107  A    between atoms: _257  and  _259
REMARK  108  A    between atoms: _259  and  _260
REMARK  109  A    between atoms: _259  and  _262
REMARK  110  A    between atoms: _262  and  _263
REMARK  111  A    between atoms: _266  and  _268
REMARK  112  A    between atoms: _268  and  _269
REMARK  113  A    between atoms: _268  and  _271
REMARK  114  A    between atoms: _271  and  _272
REMARK  115  A    between atoms: _272  and  _273
REMARK  116  A    between atoms: _273  and  _274
REMARK  117  A    between atoms: _283  and  _285
REMARK  118  A    between atoms: _285  and  _286
REMARK  119  A    between atoms: _285  and  _288
REMARK  120  A    between atoms: _288  and  _289
REMARK  121  A    between atoms: _294  and  _296
REMARK  122  A    between atoms: _296  and  _297
REMARK  123  A    between atoms: _296  and  _299
REMARK  124  A    between atoms: _299  and  _300
REMARK  125  A    between atoms: _306  and  _308
REMARK  126  A    between atoms: _308  and  _309
REMARK  127  A    between atoms: _308  and  _311
REMARK  128  A    between atoms: _311  and  _312
REMARK  129  A    between atoms: _317  and  _319
REMARK  130  A    between atoms: _319  and  _320
REMARK  131  A    between atoms: _319  and  _322
REMARK  132  A    between atoms: _322  and  _323
REMARK  133  A    between atoms: _326  and  _328
REMARK  134  A    between atoms: _328  and  _329
REMARK  135  A    between atoms: _332  and  _334
REMARK  136  A    between atoms: _334  and  _335
REMARK  137  A    between atoms: _338  and  _340
REMARK  138  A    between atoms: _340  and  _341
REMARK  139  A    between atoms: _340  and  _343
REMARK  140  A    between atoms: _343  and  _344
REMARK  141  A    between atoms: _344  and  _345
REMARK  142  A    between atoms: _345  and  _346
REMARK  143  A    between atoms: _355  and  _357
REMARK  144  A    between atoms: _357  and  _358
REMARK  145  A    between atoms: _357  and  _360
REMARK  146  A    between atoms: _360  and  _361
REMARK  147  A    between atoms: _366  and  _368
REMARK  148  A    between atoms: _368  and  _369
REMARK  149  A    between atoms: _368  and  _371
REMARK  150  A    between atoms: _373  and  _375
REMARK  151  A    between atoms: _375  and  _376
REMARK  152  A    between atoms: _375  and  _378
REMARK  153  A    between atoms: _378  and  _379
REMARK  154  A    between atoms: _379  and  _380
REMARK  155  A    between atoms: _382  and  _384
REMARK  156  A    between atoms: _384  and  _385
REMARK  157  A    between atoms: _384  and  _387
REMARK  158  A    between atoms: _387  and  _388
REMARK  159  A    between atoms: _391  and  _393
REMARK  160  A    between atoms: _393  and  _394
REMARK  161  A    between atoms: _393  and  _396
REMARK  162  A    between atoms: _396  and  _397
REMARK  163  A    between atoms: _400  and  _402
REMARK  164  A    between atoms: _402  and  _403
REMARK  165  A    between atoms: _402  and  _405
REMARK  166  A    between atoms: _405  and  _406
REMARK  167  A    between atoms: _406  and  _407
REMARK  168  A    between atoms: _407  and  _408
REMARK  169  A    between atoms: _408  and  _409
REMARK  170  A    between atoms: _413  and  _415
REMARK  171  A    between atoms: _415  and  _416
REMARK  172  A    between atoms: _415  and  _418
REMARK  173  A    between atoms: _421  and  _423
REMARK  174  A    between atoms: _423  and  _424
REMARK  175  A    between atoms: _427  and  _429
REMARK  176  A    between atoms: _429  and  _430
REMARK  177  A    between atoms: _429  and  _432
REMARK  178  A    between atoms: _432  and  _433
REMARK  179  A    between atoms: _436  and  _438
REMARK  180  A    between atoms: _438  and  _439
REMARK  181  A    between atoms: _438  and  _441
REMARK  182  A    between atoms: _441  and  _442
REMARK  183  A    between atoms: _448  and  _450
REMARK  184  A    between atoms: _450  and  _451
REMARK  185  A    between atoms: _450  and  _453
REMARK  186  A    between atoms: _453  and  _454
REMARK  187  A    between atoms: _457  and  _459
REMARK  188  A    between atoms: _459  and  _460
REMARK  189  A    between atoms: _463  and  _465
REMARK  190  A    between atoms: _465  and  _466
REMARK  191  A    between atoms: _465  and  _468
REMARK  192  A    between atoms: _468  and  _469
REMARK  193  A    between atoms: _469  and  _470
REMARK  194  A    between atoms: _470  and  _471
REMARK  195  A    between atoms: _480  and  _482
REMARK  196  A    between atoms: _482  and  _483
REMARK  197  A    between atoms: _482  and  _485
REMARK  198  A    between atoms: _485  and  _486
REMARK  199  A    between atoms: _489  and  _491
REMARK  200  A    between atoms: _491  and  _492
REMARK  201  A    between atoms: _491  and  _494
REMARK  202  A    between atoms: _494  and  _495
REMARK  203  A    between atoms: _495  and  _496
REMARK  204  A    between atoms: _498  and  _500
REMARK  205  A    between atoms: _500  and  _501
REMARK  206  A    between atoms: _500  and  _503
REMARK  207  A    between atoms: _503  and  _504
REMARK  208  A    between atoms: _509  and  _510
REMARK  209  A    between atoms: _512  and  _514
REMARK  210  A    between atoms: _514  and  _515
REMARK  211  A    between atoms: _514  and  _517
REMARK  212  A    between atoms: _517  and  _518
REMARK  213  A    between atoms: _521  and  _523
REMARK  214  A    between atoms: _523  and  _524
REMARK  215  A    between atoms: _523  and  _526
REMARK  216  A    between atoms: _526  and  _527
REMARK  217  A    between atoms: _532  and  _533
REMARK                            x       y       z     vdW  Elec       q    Type
REMARK                         _______ _______ _______ _____ _____    ______ ____
ROOT
ATOM      1  C   LEU A   1      22.154  10.566  30.426  0.00  0.00    +0.238 C 
ATOM      2  N   SER A   2      23.124   9.674  30.267  0.00  0.00    -0.296 N 
ATOM      3  H   SER A   2      24.009   9.780  30.804  0.00  0.00    +0.150 HD
ATOM      4  O   LEU A   1      21.076  10.485  29.842  0.00  0.00    -0.274 OA
ENDROOT
BRANCH   1   5
ATOM      5  CA  LEU A   1      22.438  11.718  31.383  0.00  0.00    +0.145 C 
BRANCH   5   6
ATOM      6  N   LEU A   1      22.134  12.994  30.741  0.00  0.00    -0.238 NA
ATOM      7  H   LEU A   1      21.367  13.583  31.124  0.00  0.00    +0.142 HD
ENDBRANCH   5   6
BRANCH   5   8
ATOM      8  CB  LEU A   1      21.596  11.551  32.647  0.00  0.00    +0.026 C 
BRANCH   8   9
ATOM      9  CG  LEU A   1      21.879  10.312  33.496  0.00  0.00    +0.002 C 
ATOM     10  CD2 LEU A   1      20.721  10.074  34.444  0.00  0.00    +0.000 C 
ATOM     11  CD1 LEU A   1      23.167  10.503  34.271  0.00  0.00    +0.000 C 
ENDBRANCH   8   9
ENDBRANCH   5   8
ENDBRANCH   1   5
BRANCH   2  12
ATOM     12  CA  SER A   2      22.971   8.550  29.354  0.00  0.00    +0.166 C 
BRANCH  12  13
ATOM     13  CB  SER A   2      22.514   7.275  30.054  0.00  0.00    +0.229 C 
ATOM     14  OG  SER A   2      22.575   7.158  31.274  0.00  0.00    -0.286 OA
ENDBRANCH  12  13
BRANCH  12  15
ATOM     15  C   SER A   2      24.285   8.288  28.619  0.00  0.00    +0.165 C 
BRANCH  15  16
ATOM     16  O   SER A   2      25.364   8.257  29.528  0.00  0.00    -0.380 OA
ATOM     17  H   SER A   2      25.425   9.127  29.996  0.00  0.00    +0.211 HD
ENDBRANCH  15  16
ENDBRANCH  12  15
ENDBRANCH   2  12
TORSDOF 8
REMARK  Name = ../refined-set-2016/3zbx/3zbx_pocket.pdb
REMARK  217 active torsions:
REMARK  status: ('A' for Active; 'I' for Inactive)
REMARK    1  A    between atoms: _1  and  _3
REMARK    2  A    between atoms: _3  and  _4
REMARK    3  A    between atoms: _3  and  _6
REMARK    4  A    between atoms: _9  and  _11
REMARK    5  A    between atoms: _11  and  _12
REMARK    6  A    between atoms: _11  and  _14
REMARK    7  A    between atoms: _14  and  _15
REMARK    8  A    between atoms: _18  and  _20
REMARK    9  A    between atoms: _20  and  _21
REMARK   10  A    between atoms: _23  and  _25
REMARK   11  A    between atoms: _25  and  _26
REMARK   12  A    between atoms: _25  and  _28
REMARK   13  A    between atoms: _28  and  _29
REMARK   14  A    between atoms: _29  and  _30
REMARK   15  A    between atoms: _30  and  _31
REMARK   16  A    between atoms: _40  and  _42
REMARK   17  A    between atoms: _42  and  _43
REMARK   18  A    between atoms: _45  and  _47
REMARK   19  A    between atoms: _47  and  _48
REMARK   20  A    between atoms: _47  and  _50
REMARK   21  A    between atoms: _52  and  _54
REMARK   22  A    between atoms: _54  and  _55
REMARK   23  A    between atoms: _54  and  _57
REMARK   24  A    between atoms: _60  and  _62
REMARK   25  A    between atoms: _62  and  _63
REMARK   26  A    between atoms: _62  and  _65
REMARK   27  A    between atoms: _65  and  _66
REMARK   28  A    between atoms: _71  and  _72
REMARK   29  A    between atoms: _74  and  _76
REMARK   30  A    between atoms: _76  and  _77
REMARK   31  A    between atoms: _76  and  _79
REMARK   32  A    between atoms: _79  and  _80
REMARK   33  A    between atoms: _85  and  _87
REMARK   34  A    between atoms: _87  and  _88
REMARK   35  A    between atoms: _87  and  _90
REMARK   36  A    between atoms: _90  and  _91
REMARK   37  A    between atoms: _96  and  _98
REMARK   38  A    between atoms: _98  and  _99
REMARK   39  A    between atoms: _98  and  _101
REMARK   40  A    between atoms: _103  and  _105
REMARK   41  A    between atoms: _105  and  _106
REMARK   42  A    between atoms: _109  and  _111
REMARK   43  A    between atoms: _111  and  _112
REMARK   44  A    between atoms: _111  and  _114
REMARK   45  A    between atoms: _117  and  _119
REMARK   46  A    between atoms: _119  and  _120
REMARK   47  A    between atoms: _119  and  _122
REMARK   48  A    between atoms: _122  and  _123
REMARK   49  A    between atoms: _123  and  _124
REMARK   50  A    between atoms: _124  and  _125
REMARK   51  A    between atoms: _125  and  _126
REMARK   52  A    between atoms: _130  and  _132
REMARK   53  A    between atoms: _132  and  _133
REMARK   54  A    between atoms: _132  and  _135
REMARK   55  A    between atoms: _135  and  _136
REMARK   56  A    between atoms: _138  and  _140
REMARK   57  A    between atoms: _140  and  _141
REMARK   58  A    between atoms: _140  and  _143
REMARK   59  A    between atoms: _143  and  _144
REMARK   60  A    between atoms: _144  and  _145
REMARK   61  A    between atoms: _147  and  _149
REMARK   62  A    between atoms: _149  and  _150
REMARK   63  A    between atoms: _149  and  _152
REMARK   64  A    between atoms: _152  and  _153
REMARK   65  A    between atoms: _156  and  _158
REMARK   66  A    between atoms: _158  and  _159
REMARK   67  A    between atoms: _158  and  _161
REMARK   68  A    between atoms: _161  and  _162
REMARK   69  A    between atoms: _164  and  _166
REMARK   70  A    between atoms: _166  and  _167
REMARK   71  A    between atoms: _166  and  _169
REMARK   72  A    between atoms: _172  and  _174
REMARK   73  A    between atoms: _174  and  _175
REMARK   74  A    between atoms: _174  and  _177
REMARK   75  A    between atoms: _180  and  _182
REMARK   76  A    between atoms: _182  and  _183
REMARK   77  A    between atoms: _182  and  _185
REMARK   78  A    between atoms: _185  and  _186
REMARK   79  A    between atoms: _190  and  _191
REMARK   80  A    between atoms: _196  and  _198
REMARK   81  A    between atoms: _198  and  _199
REMARK   82  A    between atoms: _198  and  _201
REMARK   83  A    between atoms: _201  and  _202
REMARK   84  A    between atoms: _207  and  _208
REMARK   85  A    between atoms: _210  and  _212
REMARK   86  A    between atoms: _212  and  _213
REMARK   87  A    between atoms: _212  and  _215
REMARK   88  A    between atoms: _215  and  _216
REMARK   89  A    between atoms: _216  and  _217
REMARK   90  A    between atoms: _219  and  _221
REMARK   91  A    between atoms: _221  and  _222
REMARK   92  A    between atoms: _221  and  _224
REMARK   93  A    between atoms: _224  and  _225
REMARK   94  A    between atoms: _225  and  _226
REMARK   95  A    between atoms: _226  and  _227
REMARK   96  A    between atoms: _227  and  _228
REMARK   97  A    between atoms: _232  and  _234
REMARK   98  A    between atoms: _234  and  _235
REMARK   99  A    between atoms: _234  and  _237
REMARK  100  A    between atoms: _237  and  _238
REMARK  101  A    between atoms: _243  and  _245
REMARK  102  A    between atoms: _245  and  _246
REMARK  103  A    between atoms: _248  and  _250
REMARK  104  A    between atoms: _250  and  _251
REMARK  105  A    between atoms: _250  and  _253
REMARK  106  A    between atoms: _253  and  _254
REMARK  107  A    between atoms: _257  and  _259
REMARK  108  A    between atoms: _259  and  _260
REMARK  109  A    between atoms: _259  and  _262
REMARK  110  A    between atoms: _262  and  _263
REMARK  111  A    between atoms: _266  and  _268
REMARK  112  A    between atoms: _268  and  _269
REMARK  113  A    between atoms: _268  and  _271
REMARK  114  A    between atoms: _271  and  _272
REMARK  115  A    between atoms: _272  and  _273
REMARK  116  A    between atoms: _273  and  _274
REMARK  117  A    between atoms: _283  and  _285
REMARK  118  A    between atoms: _285  and  _286
REMARK  119  A    between atoms: _285  and  _288
REMARK  120  A    between atoms: _288  and  _289
REMARK  121  A    between atoms: _294  and  _296
REMARK  122  A    between atoms: _296  and  _297
REMARK  123  A    between atoms: _296  and  _299
REMARK  124  A    between atoms: _299  and  _300
REMARK  125  A    between atoms: _306  and  _308
REMARK  126  A    between atoms: _308  and  _309
REMARK  127  A    between atoms: _308  and  _311
REMARK  128  A    between atoms: _311  and  _312
REMARK  129  A    between atoms: _317  and  _319
REMARK  130  A    between atoms: _319  and  _320
REMARK  131  A    between atoms: _319  and  _322
REMARK  132  A    between atoms: _322  and  _323
REMARK  133  A    between atoms: _326  and  _328
REMARK  134  A    between atoms: _328  and  _329
REMARK  135  A    between atoms: _332  and  _334
REMARK  136  A    between atoms: _334  and  _335
REMARK  137  A    between atoms: _338  and  _340
REMARK  138  A    between atoms: _340  and  _341
REMARK  139  A    between atoms: _340  and  _343
REMARK  140  A    between atoms: _343  and  _344
REMARK  141  A    between atoms: _344  and  _345
REMARK  142  A    between atoms: _345  and  _346
REMARK  143  A    between atoms: _355  and  _357
REMARK  144  A    between atoms: _357  and  _358
REMARK  145  A    between atoms: _357  and  _360
REMARK  146  A    between atoms: _360  and  _361
REMARK  147  A    between atoms: _366  and  _368
REMARK  148  A    between atoms: _368  and  _369
REMARK  149  A    between atoms: _368  and  _371
REMARK  150  A    between atoms: _373  and  _375
REMARK  151  A    between atoms: _375  and  _376
REMARK  152  A    between atoms: _375  and  _378
REMARK  153  A    between atoms: _378  and  _379
REMARK  154  A    between atoms: _379  and  _380
REMARK  155  A    between atoms: _382  and  _384
REMARK  156  A    between atoms: _384  and  _385
REMARK  157  A    between atoms: _384  and  _387
REMARK  158  A    between atoms: _387  and  _388
REMARK  159  A    between atoms: _391  and  _393
REMARK  160  A    between atoms: _393  and  _394
REMARK  161  A    between atoms: _393  and  _396
REMARK  162  A    between atoms: _396  and  _397
REMARK  163  A    between atoms: _400  and  _402
REMARK  164  A    between atoms: _402  and  _403
REMARK  165  A    between atoms: _402  and  _405
REMARK  166  A    between atoms: _405  and  _406
REMARK  167  A    between atoms: _406  and  _407
REMARK  168  A    between atoms: _407  and  _408
REMARK  169  A    between atoms: _408  and  _409
REMARK  170  A    between atoms: _413  and  _415
REMARK  171  A    between atoms: _415  and  _416
REMARK  172  A    between atoms: _415  and  _418
REMARK  173  A    between atoms: _421  and  _423
REMARK  174  A    between atoms: _423  and  _424
REMARK  175  A    between atoms: _427  and  _429
REMARK  176  A    between atoms: _429  and  _430
REMARK  177  A    between atoms: _429  and  _432
REMARK  178  A    between atoms: _432  and  _433
REMARK  179  A    between atoms: _436  and  _438
REMARK  180  A    between atoms: _438  and  _439
REMARK  181  A    between atoms: _438  and  _441
REMARK  182  A    between atoms: _441  and  _442
REMARK  183  A    between atoms: _448  and  _450
REMARK  184  A    between atoms: _450  and  _451
REMARK  185  A    between atoms: _450  and  _453
REMARK  186  A    between atoms: _453  and  _454
REMARK  187  A    between atoms: _457  and  _459
REMARK  188  A    between atoms: _459  and  _460
REMARK  189  A    between atoms: _463  and  _465
REMARK  190  A    between atoms: _465  and  _466
REMARK  191  A    between atoms: _465  and  _468
REMARK  192  A    between atoms: _468  and  _469
REMARK  193  A    between atoms: _469  and  _470
REMARK  194  A    between atoms: _470  and  _471
REMARK  195  A    between atoms: _480  and  _482
REMARK  196  A    between atoms: _482  and  _483
REMARK  197  A    between atoms: _482  and  _485
REMARK  198  A    between atoms: _485  and  _486
REMARK  199  A    between atoms: _489  and  _491
REMARK  200  A    between atoms: _491  and  _492
REMARK  201  A    between atoms: _491  and  _494
REMARK  202  A    between atoms: _494  and  _495
REMARK  203  A    between atoms: _495  and  _496
REMARK  204  A    between atoms: _498  and  _500
REMARK  205  A    between atoms: _500  and  _501
REMARK  206  A    between atoms: _500  and  _503
REMARK  207  A    between atoms: _503  and  _504
REMARK  208  A    between atoms: _509  and  _510
REMARK  209  A    between atoms: _512  and  _514
REMARK  210  A    between atoms: _514  and  _515
REMARK  211  A    between atoms: _514  and  _517
REMARK  212  A    between atoms: _517  and  _518
REMARK  213  A    between atoms: _521  and  _523
REMARK  214  A    between atoms: _523  and  _524
REMARK  215  A    between atoms: _523  and  _526
REMARK  216  A    between atoms: _526  and  _527
REMARK  217  A    between atoms: _532  and  _533
REMARK                            x       y       z     vdW  Elec       q    Type
REMARK                         _______ _______ _______ _____ _____    ______ ____
ROOT
ATOM      1  CA  HIS A   8      28.733  14.623  43.075  0.00  0.00    +0.155 C 
ENDROOT
BRANCH   1   2
ATOM      2  C   HIS A   8      27.216  14.729  43.219  0.00  0.00    +0.241 C 
ATOM      3  O   HIS A   8      26.691  15.780  43.579  0.00  0.00    -0.273 OA
ATOM      4  N   GLY A   9      26.513  13.638  42.936  0.00  0.00    -0.295 N 
ATOM      5  H   GLY A   9      26.987  12.805  42.533  0.00  0.00    +0.150 HD
BRANCH   4   6
ATOM      6  CA  GLY A   9      25.084  13.608  43.189  0.00  0.00    +0.176 C 
BRANCH   6   7
ATOM      7  C   GLY A   9      24.310  14.684  42.450  0.00  0.00    +0.243 C 
ATOM      8  N   ASP A  10      23.175  15.085  43.013  0.00  0.00    -0.296 N 
ATOM      9  H   ASP A  10      22.904  14.707  43.943  0.00  0.00    +0.150 HD
ATOM     10  O   GLY A   9      24.726  15.148  41.388  0.00  0.00    -0.273 OA
BRANCH   8  11
ATOM     11  CA  ASP A  10      22.304  16.045  42.350  0.00  0.00    +0.160 C 
BRANCH  11  12
ATOM     12  C   ASP A  10      22.777  17.469  42.608  0.00  0.00    +0.241 C 
ATOM     13  O   ASP A  10      23.390  17.766  43.640  0.00  0.00    -0.273 OA
ATOM     14  N   LEU A  11      22.492  18.350  41.661  0.00  0.00    -0.297 N 
ATOM     15  H   LEU A  11      21.880  18.066  40.869  0.00  0.00    +0.150 HD
BRANCH  14  16
ATOM     16  CA  LEU A  11      23.015  19.704  41.704  0.00  0.00    +0.149 C 
BRANCH  16  17
ATOM     17  C   LEU A  11      22.481  20.480  42.913  0.00  0.00    +0.241 C 
ATOM     18  O   LEU A  11      23.198  21.291  43.498  0.00  0.00    -0.273 OA
ATOM     19  N   ARG A  12      21.235  20.228  43.304  0.00  0.00    -0.297 N 
ATOM     20  H   ARG A  12      20.674  19.498  42.820  0.00  0.00    +0.150 HD
BRANCH  19  21
ATOM     21  CA  ARG A  12      20.658  20.980  44.416  0.00  0.00    +0.149 C 
BRANCH  21  22
ATOM     22  C   ARG A  12      21.403  20.735  45.728  0.00  0.00    +0.241 C 
ATOM     23  O   ARG A  12      21.759  21.678  46.426  0.00  0.00    -0.273 OA
ATOM     24  N   ASN A  13      21.638  19.473  46.068  0.00  0.00    -0.297 N 
ATOM     25  H   ASN A  13      21.296  18.700  45.462  0.00  0.00    +0.150 HD
BRANCH  24  26
ATOM     26  CA  ASN A  13      22.374  19.169  47.288  0.00  0.00    +0.158 C 
BRANCH  26  27
ATOM     27  C   ASN A  13      23.818  19.667  47.197  0.00  0.00    +0.241 C 
ATOM     28  O   ASN A  13      24.412  20.057  48.206  0.00  0.00    -0.273 OA
ATOM     29  N   PHE A  14      24.374  19.668  45.989  0.00  0.00    -0.298 N 
ATOM     30  H   PHE A  14      23.828  19.317  45.177  0.00  0.00    +0.150 HD
BRANCH  29  31
ATOM     31  CA  PHE A  14      25.737  20.152  45.779  0.00  0.00    +0.141 C 
BRANCH  31  32
ATOM     32  C   PHE A  14      25.898  21.634  46.136  0.00  0.00    +0.227 C 
ATOM     33  O   PHE A  14      26.825  22.001  46.860  0.00  0.00    -0.286 OA
ENDBRANCH  31  32
BRANCH  31  34
ATOM     34  CB  PHE A  14      26.171  19.923  44.324  0.00  0.00    +0.054 C 
BRANCH  34  35
ATOM     35  CG  PHE A  14      27.610  20.305  44.045  0.00  0.00    -0.020 A 
ATOM     36  CD2 PHE A  14      28.624  19.364  44.150  0.00  0.00    -0.004 A 
ATOM     37  CE2 PHE A  14      29.938  19.708  43.906  0.00  0.00    -0.000 A 
ATOM     38  CZ  PHE A  14      30.259  21.008  43.548  0.00  0.00    -0.000 A 
ATOM     39  CE1 PHE A  14      29.255  21.955  43.437  0.00  0.00    -0.000 A 
ATOM     40  CD1 PHE A  14      27.943  21.601  43.684  0.00  0.00    -0.004 A 
ENDBRANCH  34  35
ENDBRANCH  31  34
ENDBRANCH  29  31
ENDBRANCH  26  27
BRANCH  26  41
ATOM     41  CB  ASN A  13      22.345  17.658  47.572  0.00  0.00    +0.114 C 
BRANCH  41  42
ATOM     42  CG  ASN A  13      21.078  17.225  48.303  0.00  0.00    +0.222 C 
ATOM     43  OD1 ASN A  13      20.657  17.866  49.269  0.00  0.00    -0.275 OA
ATOM     44  ND2 ASN A  13      20.463  16.134  47.842  0.00  0.00    -0.329 N 
ATOM     45 HD21 ASN A  13      19.594  15.794  48.301  0.00  0.00    +0.145 HD
ATOM     46 HD22 ASN A  13      20.853  15.624  47.024  0.00  0.00    +0.145 HD
ENDBRANCH  41  42
ENDBRANCH  26  41
ENDBRANCH  24  26
ENDBRANCH  21  22
BRANCH  21  47
ATOM     47  CB  ARG A  12      19.170  20.650  44.619  0.00  0.00    +0.033 C 
BRANCH  47  48
ATOM     48  CG  ARG A  12      18.552  21.552  45.681  0.00  0.00    +0.045 C 
BRANCH  48  49
ATOM     49  CD  ARG A  12      17.091  21.268  46.004  0.00  0.00    +0.174 C 
BRANCH  49  50
ATOM     50  NE  ARG A  12      16.580  22.300  46.906  0.00  0.00    -0.265 N 
ATOM     51  CZ  ARG A  12      15.950  22.066  48.054  0.00  0.00    +0.342 C 
ATOM     52  NH2 ARG A  12      15.562  23.086  48.811  0.00  0.00    -0.292 N 
ATOM     53 HH21 ARG A  12      15.069  22.909  49.709  0.00  0.00    +0.255 HD
ATOM     54 HH22 ARG A  12      15.751  24.062  48.505  0.00  0.00    +0.255 HD
ATOM     55  NH1 ARG A  12      15.730  20.824  48.464  0.00  0.00    -0.292 N 
ATOM     56 HH11 ARG A  12      15.236  20.653  49.363  0.00  0.00    +0.255 HD
ATOM     57 HH12 ARG A  12      16.051  20.021  47.886  0.00  0.00    +0.255 HD
ATOM     58  HE  ARG A  12      16.720  23.293  46.629  0.00  0.00    +0.259 HD
ENDBRANCH  49  50
ENDBRANCH  48  49
ENDBRANCH  47  48
ENDBRANCH  21  47
ENDBRANCH  19  21
ENDBRANCH  16  17
BRANCH  16  59
ATOM     59  CB  LEU A  11      22.658  20.422  40.403  0.00  0.00    +0.029 C 
BRANCH  59  60
ATOM     60  CG  LEU A  11      23.173  21.835  40.148  0.00  0.00    +0.002 C 
ATOM     61  CD2 LEU A  11      24.697  21.882  40.231  0.00  0.00    +0.000 C 
ATOM     62  CD1 LEU A  11      22.682  22.277  38.768  0.00  0.00    +0.000 C 
ENDBRANCH  59  60
ENDBRANCH  16  59
ENDBRANCH  14  16
ENDBRANCH  11  12
BRANCH  11  63
ATOM     63  CB  ASP A  10      20.859  15.882  42.830  0.00  0.00    +0.143 C 
BRANCH  63  64
ATOM     64  CG  ASP A  10      20.672  16.301  44.275  0.00  0.00    +0.367 C 
ATOM     65  OD2 ASP A  10      21.059  15.532  45.181  0.00  0.00    -0.246 OA
ATOM     66  OD1 ASP A  10      20.137  17.402  44.507  0.00  0.00    -0.246 OA
ENDBRANCH  63  64
ENDBRANCH  11  63
ENDBRANCH   8  11
ENDBRANCH   6   7
ENDBRANCH   4   6
ENDBRANCH   1   2
BRANCH   1  69
ATOM     67  C   LYS A   7      29.756  12.447  42.838  0.00  0.00    +0.241 C 
ATOM     68  O   LYS A   7      29.948  12.378  44.051  0.00  0.00    -0.273 OA
ATOM     69  N   HIS A   8      29.149  13.482  42.273  0.00  0.00    -0.297 N 
ATOM     70  H   HIS A   8      28.969  13.478  41.249  0.00  0.00    +0.150 HD
BRANCH  67  71
ATOM     71  CA  LYS A   7      30.215  11.321  41.914  0.00  0.00    +0.149 C 
BRANCH  71  74
ATOM     72  C   MET A   6      28.089  10.970  40.743  0.00  0.00    +0.241 C 
ATOM     73  O   MET A   6      27.416  11.082  41.765  0.00  0.00    -0.273 OA
ATOM     74  N   LYS A   7      29.404  11.176  40.707  0.00  0.00    -0.297 N 
ATOM     75  H   LYS A   7      29.874  11.236  39.781  0.00  0.00    +0.150 HD
BRANCH  72  76
ATOM     76  CA  MET A   6      27.442  10.592  39.416  0.00  0.00    +0.149 C 
BRANCH  76  78
ATOM     77  C   TYR A   5      27.825   8.365  38.557  0.00  0.00    +0.241 C 
ATOM     78  N   MET A   6      27.162   9.163  39.383  0.00  0.00    -0.297 N 
ATOM     79  H   MET A   6      26.436   8.765  40.013  0.00  0.00    +0.150 HD
ATOM     80  O   TYR A   5      28.690   8.784  37.794  0.00  0.00    -0.273 OA
BRANCH  77  81
ATOM     81  CA  TYR A   5      27.449   6.885  38.577  0.00  0.00    +0.153 C 
BRANCH  81  83
ATOM     82  C   PRO A   4      26.350   6.693  36.426  0.00  0.00    +0.241 C 
ATOM     83  N   TYR A   5      27.369   6.382  37.213  0.00  0.00    -0.297 N 
ATOM     84  H   TYR A   5      28.126   5.767  36.850  0.00  0.00    +0.150 HD
ATOM     85  O   PRO A   4      25.413   7.403  36.795  0.00  0.00    -0.273 OA
BRANCH  82  89
ATOM     86  C   LEU A   3      24.381   4.749  35.209  0.00  0.00    +0.244 C 
ATOM     87  O   LEU A   3      24.906   4.080  36.099  0.00  0.00    -0.273 OA
ATOM     88  N   PRO A   4      25.034   5.730  34.578  0.00  0.00    -0.272 N 
ATOM     89  CA  PRO A   4      26.382   6.114  35.011  0.00  0.00    +0.152 C 
ATOM     90  CB  PRO A   4      26.818   7.147  33.969  0.00  0.00    +0.031 C 
ATOM     91  CG  PRO A   4      25.527   7.706  33.439  0.00  0.00    +0.024 C 
ATOM     92  CD  PRO A   4      24.531   6.578  33.483  0.00  0.00    +0.094 C 
BRANCH  86  93
ATOM     93  CA  LEU A   3      22.949   4.484  34.777  0.00  0.00    +0.149 C 
BRANCH  93  95
ATOM     94  C   VAL A   2      22.084   2.247  34.324  0.00  0.00    +0.241 C 
ATOM     95  N   LEU A   3      22.583   3.135  35.175  0.00  0.00    -0.297 N 
ATOM     96  H   LEU A   3      22.718   2.854  36.167  0.00  0.00    +0.150 HD
ATOM     97  O   VAL A   2      21.996   2.441  33.109  0.00  0.00    -0.273 OA
BRANCH  94  98
ATOM     98  CA  VAL A   2      21.596   0.953  34.962  0.00  0.00    +0.148 C 
BRANCH  98 101
ATOM     99  C   VAL A   1      19.226   0.951  35.481  0.00  0.00    +0.238 C 
ATOM    100  O   VAL A   1      19.424   1.475  36.577  0.00  0.00    -0.274 OA
ATOM    101  N   VAL A   2      20.204   0.703  34.616  0.00  0.00    -0.297 N 
ATOM    102  H   VAL A   2      19.971   0.324  33.676  0.00  0.00    +0.150 HD
BRANCH  99 103
ATOM    103  CA  VAL A   1      17.819   0.545  35.048  0.00  0.00    +0.145 C 
BRANCH 103 104
ATOM    104  CB  VAL A   1      16.912   1.787  35.089  0.00  0.00    +0.025 C 
ATOM    105  CG2 VAL A   1      15.550   1.443  34.513  0.00  0.00    +0.002 C 
ATOM    106  CG1 VAL A   1      17.550   2.931  34.308  0.00  0.00    +0.002 C 
ENDBRANCH 103 104
BRANCH 103 107
ATOM    107  N   VAL A   1      17.297  -0.509  35.911  0.00  0.00    -0.238 NA
ATOM    108  H   VAL A   1      16.772  -0.242  36.768  0.00  0.00    +0.142 HD
ENDBRANCH 103 107
ENDBRANCH  99 103
ENDBRANCH  98 101
BRANCH  98 109
ATOM    109  CB  VAL A   2      22.503  -0.222  34.527  0.00  0.00    +0.027 C 
ATOM    110  CG2 VAL A   2      21.933  -1.534  35.055  0.00  0.00    +0.002 C 
ATOM    111  CG1 VAL A   2      23.921  -0.010  35.048  0.00  0.00    +0.002 C 
ENDBRANCH  98 109
ENDBRANCH  94  98
ENDBRANCH  93  95
BRANCH  93 112
ATOM    112  CB  LEU A   3      22.012   5.490  35.444  0.00  0.00    +0.029 C 
BRANCH 112 113
ATOM    113  CG  LEU A   3      20.527   5.353  35.093  0.00  0.00    +0.002 C 
ATOM    114  CD2 LEU A   3      19.674   6.190  36.043  0.00  0.00    +0.000 C 
ATOM    115  CD1 LEU A   3      20.316   5.796  33.650  0.00  0.00    +0.000 C 
ENDBRANCH 112 113
ENDBRANCH  93 112
ENDBRANCH  86  93
ENDBRANCH  82  89
ENDBRANCH  81  83
BRANCH  81 116
ATOM    116  CB  TYR A   5      28.489   6.073  39.365  0.00  0.00    +0.055 C 
BRANCH 116 117
ATOM    117  CG  TYR A   5      28.750   6.576  40.768  0.00  0.00    -0.020 A 
ATOM    118  CD2 TYR A   5      27.858   6.316  41.799  0.00  0.00    -0.001 A 
ATOM    119  CE2 TYR A   5      28.101   6.770  43.077  0.00  0.00    +0.036 A 
ATOM    120  CZ  TYR A   5      29.251   7.493  43.335  0.00  0.00    +0.134 A 
ATOM    121  CE1 TYR A   5      30.148   7.760  42.329  0.00  0.00    +0.036 A 
ATOM    122  CD1 TYR A   5      29.896   7.305  41.058  0.00  0.00    -0.001 A 
BRANCH 120 123
ATOM    123  OH  TYR A   5      29.508   7.955  44.603  0.00  0.00    -0.506 OA
ATOM    124  HH  TYR A   5      28.773   7.682  45.208  0.00  0.00    +0.292 HD
ENDBRANCH 120 123
ENDBRANCH 116 117
ENDBRANCH  81 116
ENDBRANCH  77  81
ENDBRANCH  76  78
BRANCH  76 125
ATOM    125  CB  MET A   6      26.151  11.389  39.199  0.00  0.00    +0.041 C 
BRANCH 125 126
ATOM    126  CG  MET A   6      25.515  11.162  37.827  0.00  0.00    +0.060 C 
BRANCH 126 127
ATOM    127  SD  MET A   6      26.337  12.063  36.478  0.00  0.00    -0.139 S 
ATOM    128  CE  MET A   6      27.001  10.743  35.533  0.00  0.00    +0.069 C 
ENDBRANCH 126 127
ENDBRANCH 125 126
ENDBRANCH  76 125
ENDBRANCH  72  76
ENDBRANCH  71  74
BRANCH  71 129
ATOM    129  CB  LYS A   7      31.680  11.539  41.523  0.00  0.00    +0.029 C 
BRANCH 129 130
ATOM    130  CG  LYS A   7      32.556  12.096  42.637  0.00  0.00    +0.000 C 
BRANCH 130 131
ATOM    131  CD  LYS A   7      33.967  11.525  42.578  0.00  0.00    -0.024 C 
BRANCH 131 132
ATOM    132  CE  LYS A   7      34.956  12.401  43.341  0.00  0.00    -0.086 C 
BRANCH 132 133
ATOM    133  NZ  LYS A   7      34.381  12.850  44.639  0.00  0.00    +0.380 N 
ATOM    134  HZ1 LYS A   7      34.152  12.019  45.221  0.00  0.00    -0.089 HD
ATOM    135  HZ2 LYS A   7      35.074  13.444  45.137  0.00  0.00    -0.089 HD
ATOM    136  HZ3 LYS A   7      33.516  13.399  44.462  0.00  0.00    -0.089 HD
ENDBRANCH 132 133
ENDBRANCH 131 132
ENDBRANCH 130 131
ENDBRANCH 129 130
ENDBRANCH  71 129
ENDBRANCH  67  71
ENDBRANCH   1  69
BRANCH   1 137
ATOM    137  CB  HIS A   8      29.300  15.914  42.477  0.00  0.00    +0.076 C 
BRANCH 137 138
ATOM    138  CG  HIS A   8      30.796  15.943  42.431  0.00  0.00    +0.082 A 
ATOM    139  CD2 HIS A   8      31.716  16.049  43.419  0.00  0.00    +0.115 A 
ATOM    140  NE2 HIS A   8      32.956  15.980  42.829  0.00  0.00    -0.221 NA
ATOM    141  CE1 HIS A   8      32.802  15.838  41.526  0.00  0.00    +0.199 A 
ATOM    142  ND1 HIS A   8      31.508  15.815  41.258  0.00  0.00    -0.227 NA
ENDBRANCH 137 138
ENDBRANCH   1 137
TORSDOF 56
REMARK  Name = ../refined-set-2016/3zbx/3zbx_pocket.pdb
REMARK  217 active torsions:
REMARK  status: ('A' for Active; 'I' for Inactive)
REMARK    1  A    between atoms: _1  and  _3
REMARK    2  A    between atoms: _3  and  _4
REMARK    3  A    between atoms: _3  and  _6
REMARK    4  A    between atoms: _9  and  _11
REMARK    5  A    between atoms: _11  and  _12
REMARK    6  A    between atoms: _11  and  _14
REMARK    7  A    between atoms: _14  and  _15
REMARK    8  A    between atoms: _18  and  _20
REMARK    9  A    between atoms: _20  and  _21
REMARK   10  A    between atoms: _23  and  _25
REMARK   11  A    between atoms: _25  and  _26
REMARK   12  A    between atoms: _25  and  _28
REMARK   13  A    between atoms: _28  and  _29
REMARK   14  A    between atoms: _29  and  _30
REMARK   15  A    between atoms: _30  and  _31
REMARK   16  A    between atoms: _40  and  _42
REMARK   17  A    between atoms: _42  and  _43
REMARK   18  A    between atoms: _45  and  _47
REMARK   19  A    between atoms: _47  and  _48
REMARK   20  A    between atoms: _47  and  _50
REMARK   21  A    between atoms: _52  and  _54
REMARK   22  A    between atoms: _54  and  _55
REMARK   23  A    between atoms: _54  and  _57
REMARK   24  A    between atoms: _60  and  _62
REMARK   25  A    between atoms: _62  and  _63
REMARK   26  A    between atoms: _62  and  _65
REMARK   27  A    between atoms: _65  and  _66
REMARK   28  A    between atoms: _71  and  _72
REMARK   29  A    between atoms: _74  and  _76
REMARK   30  A    between atoms: _76  and  _77
REMARK   31  A    between atoms: _76  and  _79
REMARK   32  A    between atoms: _79  and  _80
REMARK   33  A    between atoms: _85  and  _87
REMARK   34  A    between atoms: _87  and  _88
REMARK   35  A    between atoms: _87  and  _90
REMARK   36  A    between atoms: _90  and  _91
REMARK   37  A    between atoms: _96  and  _98
REMARK   38  A    between atoms: _98  and  _99
REMARK   39  A    between atoms: _98  and  _101
REMARK   40  A    between atoms: _103  and  _105
REMARK   41  A    between atoms: _105  and  _106
REMARK   42  A    between atoms: _109  and  _111
REMARK   43  A    between atoms: _111  and  _112
REMARK   44  A    between atoms: _111  and  _114
REMARK   45  A    between atoms: _117  and  _119
REMARK   46  A    between atoms: _119  and  _120
REMARK   47  A    between atoms: _119  and  _122
REMARK   48  A    between atoms: _122  and  _123
REMARK   49  A    between atoms: _123  and  _124
REMARK   50  A    between atoms: _124  and  _125
REMARK   51  A    between atoms: _125  and  _126
REMARK   52  A    between atoms: _130  and  _132
REMARK   53  A    between atoms: _132  and  _133
REMARK   54  A    between atoms: _132  and  _135
REMARK   55  A    between atoms: _135  and  _136
REMARK   56  A    between atoms: _138  and  _140
REMARK   57  A    between atoms: _140  and  _141
REMARK   58  A    between atoms: _140  and  _143
REMARK   59  A    between atoms: _143  and  _144
REMARK   60  A    between atoms: _144  and  _145
REMARK   61  A    between atoms: _147  and  _149
REMARK   62  A    between atoms: _149  and  _150
REMARK   63  A    between atoms: _149  and  _152
REMARK   64  A    between atoms: _152  and  _153
REMARK   65  A    between atoms: _156  and  _158
REMARK   66  A    between atoms: _158  and  _159
REMARK   67  A    between atoms: _158  and  _161
REMARK   68  A    between atoms: _161  and  _162
REMARK   69  A    between atoms: _164  and  _166
REMARK   70  A    between atoms: _166  and  _167
REMARK   71  A    between atoms: _166  and  _169
REMARK   72  A    between atoms: _172  and  _174
REMARK   73  A    between atoms: _174  and  _175
REMARK   74  A    between atoms: _174  and  _177
REMARK   75  A    between atoms: _180  and  _182
REMARK   76  A    between atoms: _182  and  _183
REMARK   77  A    between atoms: _182  and  _185
REMARK   78  A    between atoms: _185  and  _186
REMARK   79  A    between atoms: _190  and  _191
REMARK   80  A    between atoms: _196  and  _198
REMARK   81  A    between atoms: _198  and  _199
REMARK   82  A    between atoms: _198  and  _201
REMARK   83  A    between atoms: _201  and  _202
REMARK   84  A    between atoms: _207  and  _208
REMARK   85  A    between atoms: _210  and  _212
REMARK   86  A    between atoms: _212  and  _213
REMARK   87  A    between atoms: _212  and  _215
REMARK   88  A    between atoms: _215  and  _216
REMARK   89  A    between atoms: _216  and  _217
REMARK   90  A    between atoms: _219  and  _221
REMARK   91  A    between atoms: _221  and  _222
REMARK   92  A    between atoms: _221  and  _224
REMARK   93  A    between atoms: _224  and  _225
REMARK   94  A    between atoms: _225  and  _226
REMARK   95  A    between atoms: _226  and  _227
REMARK   96  A    between atoms: _227  and  _228
REMARK   97  A    between atoms: _232  and  _234
REMARK   98  A    between atoms: _234  and  _235
REMARK   99  A    between atoms: _234  and  _237
REMARK  100  A    between atoms: _237  and  _238
REMARK  101  A    between atoms: _243  and  _245
REMARK  102  A    between atoms: _245  and  _246
REMARK  103  A    between atoms: _248  and  _250
REMARK  104  A    between atoms: _250  and  _251
REMARK  105  A    between atoms: _250  and  _253
REMARK  106  A    between atoms: _253  and  _254
REMARK  107  A    between atoms: _257  and  _259
REMARK  108  A    between atoms: _259  and  _260
REMARK  109  A    between atoms: _259  and  _262
REMARK  110  A    between atoms: _262  and  _263
REMARK  111  A    between atoms: _266  and  _268
REMARK  112  A    between atoms: _268  and  _269
REMARK  113  A    between atoms: _268  and  _271
REMARK  114  A    between atoms: _271  and  _272
REMARK  115  A    between atoms: _272  and  _273
REMARK  116  A    between atoms: _273  and  _274
REMARK  117  A    between atoms: _283  and  _285
REMARK  118  A    between atoms: _285  and  _286
REMARK  119  A    between atoms: _285  and  _288
REMARK  120  A    between atoms: _288  and  _289
REMARK  121  A    between atoms: _294  and  _296
REMARK  122  A    between atoms: _296  and  _297
REMARK  123  A    between atoms: _296  and  _299
REMARK  124  A    between atoms: _299  and  _300
REMARK  125  A    between atoms: _306  and  _308
REMARK  126  A    between atoms: _308  and  _309
REMARK  127  A    between atoms: _308  and  _311
REMARK  128  A    between atoms: _311  and  _312
REMARK  129  A    between atoms: _317  and  _319
REMARK  130  A    between atoms: _319  and  _320
REMARK  131  A    between atoms: _319  and  _322
REMARK  132  A    between atoms: _322  and  _323
REMARK  133  A    between atoms: _326  and  _328
REMARK  134  A    between atoms: _328  and  _329
REMARK  135  A    between atoms: _332  and  _334
REMARK  136  A    between atoms: _334  and  _335
REMARK  137  A    between atoms: _338  and  _340
REMARK  138  A    between atoms: _340  and  _341
REMARK  139  A    between atoms: _340  and  _343
REMARK  140  A    between atoms: _343  and  _344
REMARK  141  A    between atoms: _344  and  _345
REMARK  142  A    between atoms: _345  and  _346
REMARK  143  A    between atoms: _355  and  _357
REMARK  144  A    between atoms: _357  and  _358
REMARK  145  A    between atoms: _357  and  _360
REMARK  146  A    between atoms: _360  and  _361
REMARK  147  A    between atoms: _366  and  _368
REMARK  148  A    between atoms: _368  and  _369
REMARK  149  A    between atoms: _368  and  _371
REMARK  150  A    between atoms: _373  and  _375
REMARK  151  A    between atoms: _375  and  _376
REMARK  152  A    between atoms: _375  and  _378
REMARK  153  A    between atoms: _378  and  _379
REMARK  154  A    between atoms: _379  and  _380
REMARK  155  A    between atoms: _382  and  _384
REMARK  156  A    between atoms: _384  and  _385
REMARK  157  A    between atoms: _384  and  _387
REMARK  158  A    between atoms: _387  and  _388
REMARK  159  A    between atoms: _391  and  _393
REMARK  160  A    between atoms: _393  and  _394
REMARK  161  A    between atoms: _393  and  _396
REMARK  162  A    between atoms: _396  and  _397
REMARK  163  A    between atoms: _400  and  _402
REMARK  164  A    between atoms: _402  and  _403
REMARK  165  A    between atoms: _402  and  _405
REMARK  166  A    between atoms: _405  and  _406
REMARK  167  A    between atoms: _406  and  _407
REMARK  168  A    between atoms: _407  and  _408
REMARK  169  A    between atoms: _408  and  _409
REMARK  170  A    between atoms: _413  and  _415
REMARK  171  A    between atoms: _415  and  _416
REMARK  172  A    between atoms: _415  and  _418
REMARK  173  A    between atoms: _421  and  _423
REMARK  174  A    between atoms: _423  and  _424
REMARK  175  A    between atoms: _427  and  _429
REMARK  176  A    between atoms: _429  and  _430
REMARK  177  A    between atoms: _429  and  _432
REMARK  178  A    between atoms: _432  and  _433
REMARK  179  A    between atoms: _436  and  _438
REMARK  180  A    between atoms: _438  and  _439
REMARK  181  A    between atoms: _438  and  _441
REMARK  182  A    between atoms: _441  and  _442
REMARK  183  A    between atoms: _448  and  _450
REMARK  184  A    between atoms: _450  and  _451
REMARK  185  A    between atoms: _450  and  _453
REMARK  186  A    between atoms: _453  and  _454
REMARK  187  A    between atoms: _457  and  _459
REMARK  188  A    between atoms: _459  and  _460
REMARK  189  A    between atoms: _463  and  _465
REMARK  190  A    between atoms: _465  and  _466
REMARK  191  A    between atoms: _465  and  _468
REMARK  192  A    between atoms: _468  and  _469
REMARK  193  A    between atoms: _469  and  _470
REMARK  194  A    between atoms: _470  and  _471
REMARK  195  A    between atoms: _480  and  _482
REMARK  196  A    between atoms: _482  and  _483
REMARK  197  A    between atoms: _482  and  _485
REMARK  198  A    between atoms: _485  and  _486
REMARK  199  A    between atoms: _489  and  _491
REMARK  200  A    between atoms: _491  and  _492
REMARK  201  A    between atoms: _491  and  _494
REMARK  202  A    between atoms: _494  and  _495
REMARK  203  A    between atoms: _495  and  _496
REMARK  204  A    between atoms: _498  and  _500
REMARK  205  A    between atoms: _500  and  _501
REMARK  206  A    between atoms: _500  and  _503
REMARK  207  A    between atoms: _503  and  _504
REMARK  208  A    between atoms: _509  and  _510
REMARK  209  A    between atoms: _512  and  _514
REMARK  210  A    between atoms: _514  and  _515
REMARK  211  A    between atoms: _514  and  _517
REMARK  212  A    between atoms: _517  and  _518
REMARK  213  A    between atoms: _521  and  _523
REMARK  214  A    between atoms: _523  and  _524
REMARK  215  A    between atoms: _523  and  _526
REMARK  216  A    between atoms: _526  and  _527
REMARK  217  A    between atoms: _532  and  _533
REMARK                            x       y       z     vdW  Elec       q    Type
REMARK                         _______ _______ _______ _____ _____    ______ ____
ROOT
ATOM      1  CB  HIS A   1      12.415  17.777  30.419  0.00  0.00    +0.072 C 
ENDROOT
BRANCH   1   2
ATOM      2  CG  HIS A   1      13.032  17.172  31.637  0.00  0.00    +0.082 A 
ATOM      3  CD2 HIS A   1      12.565  17.038  32.899  0.00  0.00    +0.115 A 
ATOM      4  NE2 HIS A   1      13.540  16.402  33.627  0.00  0.00    -0.221 NA
ATOM      5  CE1 HIS A   1      14.570  16.153  32.839  0.00  0.00    +0.199 A 
ATOM      6  ND1 HIS A   1      14.290  16.608  31.631  0.00  0.00    -0.227 NA
ENDBRANCH   1   2
BRANCH   1   7
ATOM      7  CA  HIS A   1      11.258  16.960  29.857  0.00  0.00    +0.139 C 
BRANCH   7   8
ATOM      8  N   HIS A   1      10.799  17.542  28.608  0.00  0.00    -0.239 NA
ATOM      9  H   HIS A   1      10.984  18.546  28.410  0.00  0.00    +0.142 HD
ENDBRANCH   7   8
BRANCH   7  10
ATOM     10  C   HIS A   1      10.168  16.826  30.924  0.00  0.00    +0.224 C 
ATOM     11  O   HIS A   1       9.987  15.754  31.494  0.00  0.00    -0.287 OA
ENDBRANCH   7  10
ENDBRANCH   1   7
TORSDOF 4
REMARK  Name = ../refined-set-2016/3zbx/3zbx_pocket.pdb
REMARK  217 active torsions:
REMARK  status: ('A' for Active; 'I' for Inactive)
REMARK    1  A    between atoms: _1  and  _3
REMARK    2  A    between atoms: _3  and  _4
REMARK    3  A    between atoms: _3  and  _6
REMARK    4  A    between atoms: _9  and  _11
REMARK    5  A    between atoms: _11  and  _12
REMARK    6  A    between atoms: _11  and  _14
REMARK    7  A    between atoms: _14  and  _15
REMARK    8  A    between atoms: _18  and  _20
REMARK    9  A    between atoms: _20  and  _21
REMARK   10  A    between atoms: _23  and  _25
REMARK   11  A    between atoms: _25  and  _26
REMARK   12  A    between atoms: _25  and  _28
REMARK   13  A    between atoms: _28  and  _29
REMARK   14  A    between atoms: _29  and  _30
REMARK   15  A    between atoms: _30  and  _31
REMARK   16  A    between atoms: _40  and  _42
REMARK   17  A    between atoms: _42  and  _43
REMARK   18  A    between atoms: _45  and  _47
REMARK   19  A    between atoms: _47  and  _48
REMARK   20  A    between atoms: _47  and  _50
REMARK   21  A    between atoms: _52  and  _54
REMARK   22  A    between atoms: _54  and  _55
REMARK   23  A    between atoms: _54  and  _57
REMARK   24  A    between atoms: _60  and  _62
REMARK   25  A    between atoms: _62  and  _63
REMARK   26  A    between atoms: _62  and  _65
REMARK   27  A    between atoms: _65  and  _66
REMARK   28  A    between atoms: _71  and  _72
REMARK   29  A    between atoms: _74  and  _76
REMARK   30  A    between atoms: _76  and  _77
REMARK   31  A    between atoms: _76  and  _79
REMARK   32  A    between atoms: _79  and  _80
REMARK   33  A    between atoms: _85  and  _87
REMARK   34  A    between atoms: _87  and  _88
REMARK   35  A    between atoms: _87  and  _90
REMARK   36  A    between atoms: _90  and  _91
REMARK   37  A    between atoms: _96  and  _98
REMARK   38  A    between atoms: _98  and  _99
REMARK   39  A    between atoms: _98  and  _101
REMARK   40  A    between atoms: _103  and  _105
REMARK   41  A    between atoms: _105  and  _106
REMARK   42  A    between atoms: _109  and  _111
REMARK   43  A    between atoms: _111  and  _112
REMARK   44  A    between atoms: _111  and  _114
REMARK   45  A    between atoms: _117  and  _119
REMARK   46  A    between atoms: _119  and  _120
REMARK   47  A    between atoms: _119  and  _122
REMARK   48  A    between atoms: _122  and  _123
REMARK   49  A    between atoms: _123  and  _124
REMARK   50  A    between atoms: _124  and  _125
REMARK   51  A    between atoms: _125  and  _126
REMARK   52  A    between atoms: _130  and  _132
REMARK   53  A    between atoms: _132  and  _133
REMARK   54  A    between atoms: _132  and  _135
REMARK   55  A    between atoms: _135  and  _136
REMARK   56  A    between atoms: _138  and  _140
REMARK   57  A    between atoms: _140  and  _141
REMARK   58  A    between atoms: _140  and  _143
REMARK   59  A    between atoms: _143  and  _144
REMARK   60  A    between atoms: _144  and  _145
REMARK   61  A    between atoms: _147  and  _149
REMARK   62  A    between atoms: _149  and  _150
REMARK   63  A    between atoms: _149  and  _152
REMARK   64  A    between atoms: _152  and  _153
REMARK   65  A    between atoms: _156  and  _158
REMARK   66  A    between atoms: _158  and  _159
REMARK   67  A    between atoms: _158  and  _161
REMARK   68  A    between atoms: _161  and  _162
REMARK   69  A    between atoms: _164  and  _166
REMARK   70  A    between atoms: _166  and  _167
REMARK   71  A    between atoms: _166  and  _169
REMARK   72  A    between atoms: _172  and  _174
REMARK   73  A    between atoms: _174  and  _175
REMARK   74  A    between atoms: _174  and  _177
REMARK   75  A    between atoms: _180  and  _182
REMARK   76  A    between atoms: _182  and  _183
REMARK   77  A    between atoms: _182  and  _185
REMARK   78  A    between atoms: _185  and  _186
REMARK   79  A    between atoms: _190  and  _191
REMARK   80  A    between atoms: _196  and  _198
REMARK   81  A    between atoms: _198  and  _199
REMARK   82  A    between atoms: _198  and  _201
REMARK   83  A    between atoms: _201  and  _202
REMARK   84  A    between atoms: _207  and  _208
REMARK   85  A    between atoms: _210  and  _212
REMARK   86  A    between atoms: _212  and  _213
REMARK   87  A    between atoms: _212  and  _215
REMARK   88  A    between atoms: _215  and  _216
REMARK   89  A    between atoms: _216  and  _217
REMARK   90  A    between atoms: _219  and  _221
REMARK   91  A    between atoms: _221  and  _222
REMARK   92  A    between atoms: _221  and  _224
REMARK   93  A    between atoms: _224  and  _225
REMARK   94  A    between atoms: _225  and  _226
REMARK   95  A    between atoms: _226  and  _227
REMARK   96  A    between atoms: _227  and  _228
REMARK   97  A    between atoms: _232  and  _234
REMARK   98  A    between atoms: _234  and  _235
REMARK   99  A    between atoms: _234  and  _237
REMARK  100  A    between atoms: _237  and  _238
REMARK  101  A    between atoms: _243  and  _245
REMARK  102  A    between atoms: _245  and  _246
REMARK  103  A    between atoms: _248  and  _250
REMARK  104  A    between atoms: _250  and  _251
REMARK  105  A    between atoms: _250  and  _253
REMARK  106  A    between atoms: _253  and  _254
REMARK  107  A    between atoms: _257  and  _259
REMARK  108  A    between atoms: _259  and  _260
REMARK  109  A    between atoms: _259  and  _262
REMARK  110  A    between atoms: _262  and  _263
REMARK  111  A    between atoms: _266  and  _268
REMARK  112  A    between atoms: _268  and  _269
REMARK  113  A    between atoms: _268  and  _271
REMARK  114  A    between atoms: _271  and  _272
REMARK  115  A    between atoms: _272  and  _273
REMARK  116  A    between atoms: _273  and  _274
REMARK  117  A    between atoms: _283  and  _285
REMARK  118  A    between atoms: _285  and  _286
REMARK  119  A    between atoms: _285  and  _288
REMARK  120  A    between atoms: _288  and  _289
REMARK  121  A    between atoms: _294  and  _296
REMARK  122  A    between atoms: _296  and  _297
REMARK  123  A    between atoms: _296  and  _299
REMARK  124  A    between atoms: _299  and  _300
REMARK  125  A    between atoms: _306  and  _308
REMARK  126  A    between atoms: _308  and  _309
REMARK  127  A    between atoms: _308  and  _311
REMARK  128  A    between atoms: _311  and  _312
REMARK  129  A    between atoms: _317  and  _319
REMARK  130  A    between atoms: _319  and  _320
REMARK  131  A    between atoms: _319  and  _322
REMARK  132  A    between atoms: _322  and  _323
REMARK  133  A    between atoms: _326  and  _328
REMARK  134  A    between atoms: _328  and  _329
REMARK  135  A    between atoms: _332  and  _334
REMARK  136  A    between atoms: _334  and  _335
REMARK  137  A    between atoms: _338  and  _340
REMARK  138  A    between atoms: _340  and  _341
REMARK  139  A    between atoms: _340  and  _343
REMARK  140  A    between atoms: _343  and  _344
REMARK  141  A    between atoms: _344  and  _345
REMARK  142  A    between atoms: _345  and  _346
REMARK  143  A    between atoms: _355  and  _357
REMARK  144  A    between atoms: _357  and  _358
REMARK  145  A    between atoms: _357  and  _360
REMARK  146  A    between atoms: _360  and  _361
REMARK  147  A    between atoms: _366  and  _368
REMARK  148  A    between atoms: _368  and  _369
REMARK  149  A    between atoms: _368  and  _371
REMARK  150  A    between atoms: _373  and  _375
REMARK  151  A    between atoms: _375  and  _376
REMARK  152  A    between atoms: _375  and  _378
REMARK  153  A    between atoms: _378  and  _379
REMARK  154  A    between atoms: _379  and  _380
REMARK  155  A    between atoms: _382  and  _384
REMARK  156  A    between atoms: _384  and  _385
REMARK  157  A    between atoms: _384  and  _387
REMARK  158  A    between atoms: _387  and  _388
REMARK  159  A    between atoms: _391  and  _393
REMARK  160  A    between atoms: _393  and  _394
REMARK  161  A    between atoms: _393  and  _396
REMARK  162  A    between atoms: _396  and  _397
REMARK  163  A    between atoms: _400  and  _402
REMARK  164  A    between atoms: _402  and  _403
REMARK  165  A    between atoms: _402  and  _405
REMARK  166  A    between atoms: _405  and  _406
REMARK  167  A    between atoms: _406  and  _407
REMARK  168  A    between atoms: _407  and  _408
REMARK  169  A    between atoms: _408  and  _409
REMARK  170  A    between atoms: _413  and  _415
REMARK  171  A    between atoms: _415  and  _416
REMARK  172  A    between atoms: _415  and  _418
REMARK  173  A    between atoms: _421  and  _423
REMARK  174  A    between atoms: _423  and  _424
REMARK  175  A    between atoms: _427  and  _429
REMARK  176  A    between atoms: _429  and  _430
REMARK  177  A    between atoms: _429  and  _432
REMARK  178  A    between atoms: _432  and  _433
REMARK  179  A    between atoms: _436  and  _438
REMARK  180  A    between atoms: _438  and  _439
REMARK  181  A    between atoms: _438  and  _441
REMARK  182  A    between atoms: _441  and  _442
REMARK  183  A    between atoms: _448  and  _450
REMARK  184  A    between atoms: _450  and  _451
REMARK  185  A    between atoms: _450  and  _453
REMARK  186  A    between atoms: _453  and  _454
REMARK  187  A    between atoms: _457  and  _459
REMARK  188  A    between atoms: _459  and  _460
REMARK  189  A    between atoms: _463  and  _465
REMARK  190  A    between atoms: _465  and  _466
REMARK  191  A    between atoms: _465  and  _468
REMARK  192  A    between atoms: _468  and  _469
REMARK  193  A    between atoms: _469  and  _470
REMARK  194  A    between atoms: _470  and  _471
REMARK  195  A    between atoms: _480  and  _482
REMARK  196  A    between atoms: _482  and  _483
REMARK  197  A    between atoms: _482  and  _485
REMARK  198  A    between atoms: _485  and  _486
REMARK  199  A    between atoms: _489  and  _491
REMARK  200  A    between atoms: _491  and  _492
REMARK  201  A    between atoms: _491  and  _494
REMARK  202  A    between atoms: _494  and  _495
REMARK  203  A    between atoms: _495  and  _496
REMARK  204  A    between atoms: _498  and  _500
REMARK  205  A    between atoms: _500  and  _501
REMARK  206  A    between atoms: _500  and  _503
REMARK  207  A    between atoms: _503  and  _504
REMARK  208  A    between atoms: _509  and  _510
REMARK  209  A    between atoms: _512  and  _514
REMARK  210  A    between atoms: _514  and  _515
REMARK  211  A    between atoms: _514  and  _517
REMARK  212  A    between atoms: _517  and  _518
REMARK  213  A    between atoms: _521  and  _523
REMARK  214  A    between atoms: _523  and  _524
REMARK  215  A    between atoms: _523  and  _526
REMARK  216  A    between atoms: _526  and  _527
REMARK  217  A    between atoms: _532  and  _533
REMARK                            x       y       z     vdW  Elec       q    Type
REMARK                         _______ _______ _______ _____ _____    ______ ____
ROOT
ATOM      1  CA  ASP A   1      10.327  17.889  35.380  0.00  0.00    +0.144 C 
ENDROOT
BRANCH   1   2
ATOM      2  N   ASP A   1       9.939  17.827  33.970  0.00  0.00    -0.239 NA
ATOM      3  H   ASP A   1      10.662  17.646  33.244  0.00  0.00    +0.142 HD
ENDBRANCH   1   2
BRANCH   1   4
ATOM      4  C   ASP A   1      11.746  18.407  35.609  0.00  0.00    +0.225 C 
ATOM      5  O   ASP A   1      12.500  17.848  36.405  0.00  0.00    -0.287 OA
ENDBRANCH   1   4
BRANCH   1   6
ATOM      6  CB  ASP A   1      10.182  16.503  36.026  0.00  0.00    +0.139 C 
BRANCH   6   7
ATOM      7  CG  ASP A   1      10.239  16.551  37.553  0.00  0.00    +0.367 C 
ATOM      8  OD2 ASP A   1      10.332  15.470  38.179  0.00  0.00    -0.246 OA
ATOM      9  OD1 ASP A   1      10.188  17.660  38.127  0.00  0.00    -0.246 OA
ENDBRANCH   6   7
ENDBRANCH   1   6
TORSDOF 4
REMARK  Name = ../refined-set-2016/3zbx/3zbx_pocket.pdb
REMARK  217 active torsions:
REMARK  status: ('A' for Active; 'I' for Inactive)
REMARK    1  A    between atoms: _1  and  _3
REMARK    2  A    between atoms: _3  and  _4
REMARK    3  A    between atoms: _3  and  _6
REMARK    4  A    between atoms: _9  and  _11
REMARK    5  A    between atoms: _11  and  _12
REMARK    6  A    between atoms: _11  and  _14
REMARK    7  A    between atoms: _14  and  _15
REMARK    8  A    between atoms: _18  and  _20
REMARK    9  A    between atoms: _20  and  _21
REMARK   10  A    between atoms: _23  and  _25
REMARK   11  A    between atoms: _25  and  _26
REMARK   12  A    between atoms: _25  and  _28
REMARK   13  A    between atoms: _28  and  _29
REMARK   14  A    between atoms: _29  and  _30
REMARK   15  A    between atoms: _30  and  _31
REMARK   16  A    between atoms: _40  and  _42
REMARK   17  A    between atoms: _42  and  _43
REMARK   18  A    between atoms: _45  and  _47
REMARK   19  A    between atoms: _47  and  _48
REMARK   20  A    between atoms: _47  and  _50
REMARK   21  A    between atoms: _52  and  _54
REMARK   22  A    between atoms: _54  and  _55
REMARK   23  A    between atoms: _54  and  _57
REMARK   24  A    between atoms: _60  and  _62
REMARK   25  A    between atoms: _62  and  _63
REMARK   26  A    between atoms: _62  and  _65
REMARK   27  A    between atoms: _65  and  _66
REMARK   28  A    between atoms: _71  and  _72
REMARK   29  A    between atoms: _74  and  _76
REMARK   30  A    between atoms: _76  and  _77
REMARK   31  A    between atoms: _76  and  _79
REMARK   32  A    between atoms: _79  and  _80
REMARK   33  A    between atoms: _85  and  _87
REMARK   34  A    between atoms: _87  and  _88
REMARK   35  A    between atoms: _87  and  _90
REMARK   36  A    between atoms: _90  and  _91
REMARK   37  A    between atoms: _96  and  _98
REMARK   38  A    between atoms: _98  and  _99
REMARK   39  A    between atoms: _98  and  _101
REMARK   40  A    between atoms: _103  and  _105
REMARK   41  A    between atoms: _105  and  _106
REMARK   42  A    between atoms: _109  and  _111
REMARK   43  A    between atoms: _111  and  _112
REMARK   44  A    between atoms: _111  and  _114
REMARK   45  A    between atoms: _117  and  _119
REMARK   46  A    between atoms: _119  and  _120
REMARK   47  A    between atoms: _119  and  _122
REMARK   48  A    between atoms: _122  and  _123
REMARK   49  A    between atoms: _123  and  _124
REMARK   50  A    between atoms: _124  and  _125
REMARK   51  A    between atoms: _125  and  _126
REMARK   52  A    between atoms: _130  and  _132
REMARK   53  A    between atoms: _132  and  _133
REMARK   54  A    between atoms: _132  and  _135
REMARK   55  A    between atoms: _135  and  _136
REMARK   56  A    between atoms: _138  and  _140
REMARK   57  A    between atoms: _140  and  _141
REMARK   58  A    between atoms: _140  and  _143
REMARK   59  A    between atoms: _143  and  _144
REMARK   60  A    between atoms: _144  and  _145
REMARK   61  A    between atoms: _147  and  _149
REMARK   62  A    between atoms: _149  and  _150
REMARK   63  A    between atoms: _149  and  _152
REMARK   64  A    between atoms: _152  and  _153
REMARK   65  A    between atoms: _156  and  _158
REMARK   66  A    between atoms: _158  and  _159
REMARK   67  A    between atoms: _158  and  _161
REMARK   68  A    between atoms: _161  and  _162
REMARK   69  A    between atoms: _164  and  _166
REMARK   70  A    between atoms: _166  and  _167
REMARK   71  A    between atoms: _166  and  _169
REMARK   72  A    between atoms: _172  and  _174
REMARK   73  A    between atoms: _174  and  _175
REMARK   74  A    between atoms: _174  and  _177
REMARK   75  A    between atoms: _180  and  _182
REMARK   76  A    between atoms: _182  and  _183
REMARK   77  A    between atoms: _182  and  _185
REMARK   78  A    between atoms: _185  and  _186
REMARK   79  A    between atoms: _190  and  _191
REMARK   80  A    between atoms: _196  and  _198
REMARK   81  A    between atoms: _198  and  _199
REMARK   82  A    between atoms: _198  and  _201
REMARK   83  A    between atoms: _201  and  _202
REMARK   84  A    between atoms: _207  and  _208
REMARK   85  A    between atoms: _210  and  _212
REMARK   86  A    between atoms: _212  and  _213
REMARK   87  A    between atoms: _212  and  _215
REMARK   88  A    between atoms: _215  and  _216
REMARK   89  A    between atoms: _216  and  _217
REMARK   90  A    between atoms: _219  and  _221
REMARK   91  A    between atoms: _221  and  _222
REMARK   92  A    between atoms: _221  and  _224
REMARK   93  A    between atoms: _224  and  _225
REMARK   94  A    between atoms: _225  and  _226
REMARK   95  A    between atoms: _226  and  _227
REMARK   96  A    between atoms: _227  and  _228
REMARK   97  A    between atoms: _232  and  _234
REMARK   98  A    between atoms: _234  and  _235
REMARK   99  A    between atoms: _234  and  _237
REMARK  100  A    between atoms: _237  and  _238
REMARK  101  A    between atoms: _243  and  _245
REMARK  102  A    between atoms: _245  and  _246
REMARK  103  A    between atoms: _248  and  _250
REMARK  104  A    between atoms: _250  and  _251
REMARK  105  A    between atoms: _250  and  _253
REMARK  106  A    between atoms: _253  and  _254
REMARK  107  A    between atoms: _257  and  _259
REMARK  108  A    between atoms: _259  and  _260
REMARK  109  A    between atoms: _259  and  _262
REMARK  110  A    between atoms: _262  and  _263
REMARK  111  A    between atoms: _266  and  _268
REMARK  112  A    between atoms: _268  and  _269
REMARK  113  A    between atoms: _268  and  _271
REMARK  114  A    between atoms: _271  and  _272
REMARK  115  A    between atoms: _272  and  _273
REMARK  116  A    between atoms: _273  and  _274
REMARK  117  A    between atoms: _283  and  _285
REMARK  118  A    between atoms: _285  and  _286
REMARK  119  A    between atoms: _285  and  _288
REMARK  120  A    between atoms: _288  and  _289
REMARK  121  A    between atoms: _294  and  _296
REMARK  122  A    between atoms: _296  and  _297
REMARK  123  A    between atoms: _296  and  _299
REMARK  124  A    between atoms: _299  and  _300
REMARK  125  A    between atoms: _306  and  _308
REMARK  126  A    between atoms: _308  and  _309
REMARK  127  A    between atoms: _308  and  _311
REMARK  128  A    between atoms: _311  and  _312
REMARK  129  A    between atoms: _317  and  _319
REMARK  130  A    between atoms: _319  and  _320
REMARK  131  A    between atoms: _319  and  _322
REMARK  132  A    between atoms: _322  and  _323
REMARK  133  A    between atoms: _326  and  _328
REMARK  134  A    between atoms: _328  and  _329
REMARK  135  A    between atoms: _332  and  _334
REMARK  136  A    between atoms: _334  and  _335
REMARK  137  A    between atoms: _338  and  _340
REMARK  138  A    between atoms: _340  and  _341
REMARK  139  A    between atoms: _340  and  _343
REMARK  140  A    between atoms: _343  and  _344
REMARK  141  A    between atoms: _344  and  _345
REMARK  142  A    between atoms: _345  and  _346
REMARK  143  A    between atoms: _355  and  _357
REMARK  144  A    between atoms: _357  and  _358
REMARK  145  A    between atoms: _357  and  _360
REMARK  146  A    between atoms: _360  and  _361
REMARK  147  A    between atoms: _366  and  _368
REMARK  148  A    between atoms: _368  and  _369
REMARK  149  A    between atoms: _368  and  _371
REMARK  150  A    between atoms: _373  and  _375
REMARK  151  A    between atoms: _375  and  _376
REMARK  152  A    between atoms: _375  and  _378
REMARK  153  A    between atoms: _378  and  _379
REMARK  154  A    between atoms: _379  and  _380
REMARK  155  A    between atoms: _382  and  _384
REMARK  156  A    between atoms: _384  and  _385
REMARK  157  A    between atoms: _384  and  _387
REMARK  158  A    between atoms: _387  and  _388
REMARK  159  A    between atoms: _391  and  _393
REMARK  160  A    between atoms: _393  and  _394
REMARK  161  A    between atoms: _393  and  _396
REMARK  162  A    between atoms: _396  and  _397
REMARK  163  A    between atoms: _400  and  _402
REMARK  164  A    between atoms: _402  and  _403
REMARK  165  A    between atoms: _402  and  _405
REMARK  166  A    between atoms: _405  and  _406
REMARK  167  A    between atoms: _406  and  _407
REMARK  168  A    between atoms: _407  and  _408
REMARK  169  A    between atoms: _408  and  _409
REMARK  170  A    between atoms: _413  and  _415
REMARK  171  A    between atoms: _415  and  _416
REMARK  172  A    between atoms: _415  and  _418
REMARK  173  A    between atoms: _421  and  _423
REMARK  174  A    between atoms: _423  and  _424
REMARK  175  A    between atoms: _427  and  _429
REMARK  176  A    between atoms: _429  and  _430
REMARK  177  A    between atoms: _429  and  _432
REMARK  178  A    between atoms: _432  and  _433
REMARK  179  A    between atoms: _436  and  _438
REMARK  180  A    between atoms: _438  and  _439
REMARK  181  A    between atoms: _438  and  _441
REMARK  182  A    between atoms: _441  and  _442
REMARK  183  A    between atoms: _448  and  _450
REMARK  184  A    between atoms: _450  and  _451
REMARK  185  A    between atoms: _450  and  _453
REMARK  186  A    between atoms: _453  and  _454
REMARK  187  A    between atoms: _457  and  _459
REMARK  188  A    between atoms: _459  and  _460
REMARK  189  A    between atoms: _463  and  _465
REMARK  190  A    between atoms: _465  and  _466
REMARK  191  A    between atoms: _465  and  _468
REMARK  192  A    between atoms: _468  and  _469
REMARK  193  A    between atoms: _469  and  _470
REMARK  194  A    between atoms: _470  and  _471
REMARK  195  A    between atoms: _480  and  _482
REMARK  196  A    between atoms: _482  and  _483
REMARK  197  A    between atoms: _482  and  _485
REMARK  198  A    between atoms: _485  and  _486
REMARK  199  A    between atoms: _489  and  _491
REMARK  200  A    between atoms: _491  and  _492
REMARK  201  A    between atoms: _491  and  _494
REMARK  202  A    between atoms: _494  and  _495
REMARK  203  A    between atoms: _495  and  _496
REMARK  204  A    between atoms: _498  and  _500
REMARK  205  A    between atoms: _500  and  _501
REMARK  206  A    between atoms: _500  and  _503
REMARK  207  A    between atoms: _503  and  _504
REMARK  208  A    between atoms: _509  and  _510
REMARK  209  A    between atoms: _512  and  _514
REMARK  210  A    between atoms: _514  and  _515
REMARK  211  A    between atoms: _514  and  _517
REMARK  212  A    between atoms: _517  and  _518
REMARK  213  A    between atoms: _521  and  _523
REMARK  214  A    between atoms: _523  and  _524
REMARK  215  A    between atoms: _523  and  _526
REMARK  216  A    between atoms: _526  and  _527
REMARK  217  A    between atoms: _532  and  _533
REMARK                            x       y       z     vdW  Elec       q    Type
REMARK                         _______ _______ _______ _____ _____    ______ ____
ROOT
ATOM      1  CA  ASN A   4      16.942  16.627  38.783  0.00  0.00    +0.158 C 
ENDROOT
BRANCH   1   4
ATOM      2  C   ARG A   3      17.363  17.272  41.079  0.00  0.00    +0.241 C 
ATOM      3  O   ARG A   3      17.792  16.151  41.356  0.00  0.00    -0.273 OA
ATOM      4  N   ASN A   4      16.989  17.615  39.850  0.00  0.00    -0.297 N 
ATOM      5  H   ASN A   4      16.727  18.601  39.649  0.00  0.00    +0.150 HD
BRANCH   2   6
ATOM      6  CA  ARG A   3      17.231  18.342  42.161  0.00  0.00    +0.149 C 
BRANCH   6   8
ATOM      7  C   ALA A   2      18.237  20.178  40.947  0.00  0.00    +0.241 C 
ATOM      8  N   ARG A   3      17.175  19.663  41.552  0.00  0.00    -0.297 N 
ATOM      9  H   ARG A   3      16.291  20.210  41.592  0.00  0.00    +0.150 HD
ATOM     10  O   ALA A   2      19.314  19.590  40.892  0.00  0.00    -0.273 OA
BRANCH   7  11
ATOM     11  CA  ALA A   2      18.059  21.552  40.300  0.00  0.00    +0.149 C 
ATOM     12  CB  ALA A   2      18.416  22.656  41.294  0.00  0.00    +0.031 C 
BRANCH  11  14
ATOM     13  C   ALA A   1      16.167  20.935  38.895  0.00  0.00    +0.238 C 
ATOM     14  N   ALA A   2      16.700  21.744  39.807  0.00  0.00    -0.297 N 
ATOM     15  H   ALA A   2      16.133  22.533  40.178  0.00  0.00    +0.150 HD
ATOM     16  O   ALA A   1      16.744  19.940  38.448  0.00  0.00    -0.274 OA
BRANCH  13  17
ATOM     17  CA  ALA A   1      14.774  21.289  38.413  0.00  0.00    +0.145 C 
ATOM     18  CB  ALA A   1      13.743  20.858  39.446  0.00  0.00    +0.028 C 
BRANCH  17  19
ATOM     19  N   ALA A   1      14.551  20.599  37.146  0.00  0.00    -0.238 NA
ATOM     20  H   ALA A   1      15.234  19.876  36.843  0.00  0.00    +0.142 HD
ENDBRANCH  17  19
ENDBRANCH  13  17
ENDBRANCH  11  14
ENDBRANCH   7  11
ENDBRANCH   6   8
BRANCH   6  21
ATOM     21  CB  ARG A   3      15.965  18.080  42.979  0.00  0.00    +0.033 C 
BRANCH  21  22
ATOM     22  CG  ARG A   3      14.704  18.048  42.134  0.00  0.00    +0.045 C 
BRANCH  22  23
ATOM     23  CD  ARG A   3      13.462  17.661  42.935  0.00  0.00    +0.174 C 
BRANCH  23  24
ATOM     24  NE  ARG A   3      12.281  17.841  42.100  0.00  0.00    -0.265 N 
ATOM     25  CZ  ARG A   3      11.603  18.976  42.023  0.00  0.00    +0.342 C 
ATOM     26  NH2 ARG A   3      11.978  20.021  42.745  0.00  0.00    -0.292 N 
ATOM     27 HH21 ARG A   3      12.805  19.950  43.372  0.00  0.00    +0.255 HD
ATOM     28 HH22 ARG A   3      11.446  20.913  42.685  0.00  0.00    +0.255 HD
ATOM     29  NH1 ARG A   3      10.584  19.083  41.183  0.00  0.00    -0.292 N 
ATOM     30 HH11 ARG A   3      10.051  19.974  41.122  0.00  0.00    +0.255 HD
ATOM     31 HH12 ARG A   3      10.317  18.276  40.584  0.00  0.00    +0.255 HD
ATOM     32  HE  ARG A   3      11.953  17.033  41.533  0.00  0.00    +0.259 HD
ENDBRANCH  23  24
ENDBRANCH  22  23
ENDBRANCH  21  22
ENDBRANCH   6  21
ENDBRANCH   2   6
ENDBRANCH   1   4
BRANCH   1  33
ATOM     33  C   ASN A   4      18.071  16.770  37.760  0.00  0.00    +0.241 C 
ATOM     34  N   CYS A   5      19.122  17.489  38.144  0.00  0.00    -0.296 N 
ATOM     35  H   CYS A   5      19.055  18.057  39.013  0.00  0.00    +0.150 HD
ATOM     36  O   ASN A   4      17.990  16.239  36.652  0.00  0.00    -0.273 OA
BRANCH  34  37
ATOM     37  CA  CYS A   5      20.363  17.504  37.383  0.00  0.00    +0.160 C 
BRANCH  37  38
ATOM     38  C   CYS A   5      21.467  16.889  38.245  0.00  0.00    +0.242 C 
ATOM     39  O   CYS A   5      21.551  17.187  39.433  0.00  0.00    -0.273 OA
ATOM     40  N   MET A   6      22.298  16.029  37.652  0.00  0.00    -0.297 N 
ATOM     41  H   MET A   6      22.147  15.791  36.651  0.00  0.00    +0.150 HD
BRANCH  40  42
ATOM     42  CA  MET A   6      23.421  15.408  38.371  0.00  0.00    +0.149 C 
BRANCH  42  43
ATOM     43  C   MET A   6      24.766  16.006  37.940  0.00  0.00    +0.241 C 
ATOM     44  N   LEU A   7      25.810  15.739  38.729  0.00  0.00    -0.297 N 
ATOM     45  H   LEU A   7      25.657  15.123  39.553  0.00  0.00    +0.150 HD
ATOM     46  O   MET A   6      24.849  16.681  36.916  0.00  0.00    -0.273 OA
BRANCH  44  47
ATOM     47  CA  LEU A   7      27.159  16.265  38.499  0.00  0.00    +0.149 C 
BRANCH  47  48
ATOM     48  C   LEU A   7      28.181  15.135  38.553  0.00  0.00    +0.241 C 
ATOM     49  O   LEU A   7      28.387  14.545  39.611  0.00  0.00    -0.273 OA
ATOM     50  N   ASP A   8      28.839  14.847  37.432  0.00  0.00    -0.298 N 
ATOM     51  H   ASP A   8      28.666  15.407  36.573  0.00  0.00    +0.150 HD
BRANCH  50  52
ATOM     52  CA  ASP A   8      29.803  13.749  37.401  0.00  0.00    +0.148 C 
BRANCH  52  53
ATOM     53  C   ASP A   8      31.158  14.165  37.993  0.00  0.00    +0.227 C 
ATOM     54  O   ASP A   8      31.312  15.279  38.495  0.00  0.00    -0.286 OA
ENDBRANCH  52  53
BRANCH  52  55
ATOM     55  CB  ASP A   8      29.970  13.228  35.968  0.00  0.00    +0.142 C 
BRANCH  55  56
ATOM     56  CG  ASP A   8      30.789  14.154  35.092  0.00  0.00    +0.367 C 
ATOM     57  OD2 ASP A   8      31.349  15.149  35.599  0.00  0.00    -0.246 OA
ATOM     58  OD1 ASP A   8      30.877  13.880  33.880  0.00  0.00    -0.246 OA
ENDBRANCH  55  56
ENDBRANCH  52  55
ENDBRANCH  50  52
ENDBRANCH  47  48
BRANCH  47  59
ATOM     59  CB  LEU A   7      27.532  17.272  39.586  0.00  0.00    +0.029 C 
BRANCH  59  60
ATOM     60  CG  LEU A   7      27.664  18.760  39.271  0.00  0.00    +0.002 C 
ATOM     61  CD2 LEU A   7      28.357  19.441  40.448  0.00  0.00    +0.000 C 
ATOM     62  CD1 LEU A   7      28.465  18.968  37.996  0.00  0.00    +0.000 C 
ENDBRANCH  59  60
ENDBRANCH  47  59
ENDBRANCH  44  47
ENDBRANCH  42  43
BRANCH  42  63
ATOM     63  CB  MET A   6      23.450  13.893  38.129  0.00  0.00    +0.041 C 
BRANCH  63  64
ATOM     64  CG  MET A   6      22.103  13.198  38.291  0.00  0.00    +0.060 C 
BRANCH  64  65
ATOM     65  SD  MET A   6      21.424  13.362  39.945  0.00  0.00    -0.139 S 
ATOM     66  CE  MET A   6      22.495  12.270  40.874  0.00  0.00    +0.069 C 
ENDBRANCH  64  65
ENDBRANCH  63  64
ENDBRANCH  42  63
ENDBRANCH  40  42
ENDBRANCH  37  38
BRANCH  37  67
ATOM     67  CB  CYS A   5      20.723  18.946  37.005  0.00  0.00    +0.098 C 
ATOM     68  SG  CYS A   5      19.490  19.740  35.930  0.00  0.00    -0.080 S 
ENDBRANCH  37  67
ENDBRANCH  34  37
ENDBRANCH   1  33
BRANCH   1  69
ATOM     69  CB  ASN A   4      15.580  16.677  38.093  0.00  0.00    +0.114 C 
BRANCH  69  70
ATOM     70  CG  ASN A   4      14.479  16.089  38.956  0.00  0.00    +0.222 C 
ATOM     71  OD1 ASN A   4      14.753  15.338  39.898  0.00  0.00    -0.275 OA
ATOM     72  ND2 ASN A   4      13.231  16.424  38.645  0.00  0.00    -0.329 N 
ATOM     73 HD21 ASN A   4      12.438  16.050  39.204  0.00  0.00    +0.145 HD
ATOM     74 HD22 ASN A   4      13.048  17.060  37.843  0.00  0.00    +0.145 HD
ENDBRANCH  69  70
ENDBRANCH   1  69
TORSDOF 30
REMARK  Name = ../refined-set-2016/3zbx/3zbx_pocket.pdb
REMARK  217 active torsions:
REMARK  status: ('A' for Active; 'I' for Inactive)
REMARK    1  A    between atoms: _1  and  _3
REMARK    2  A    between atoms: _3  and  _4
REMARK    3  A    between atoms: _3  and  _6
REMARK    4  A    between atoms: _9  and  _11
REMARK    5  A    between atoms: _11  and  _12
REMARK    6  A    between atoms: _11  and  _14
REMARK    7  A    between atoms: _14  and  _15
REMARK    8  A    between atoms: _18  and  _20
REMARK    9  A    between atoms: _20  and  _21
REMARK   10  A    between atoms: _23  and  _25
REMARK   11  A    between atoms: _25  and  _26
REMARK   12  A    between atoms: _25  and  _28
REMARK   13  A    between atoms: _28  and  _29
REMARK   14  A    between atoms: _29  and  _30
REMARK   15  A    between atoms: _30  and  _31
REMARK   16  A    between atoms: _40  and  _42
REMARK   17  A    between atoms: _42  and  _43
REMARK   18  A    between atoms: _45  and  _47
REMARK   19  A    between atoms: _47  and  _48
REMARK   20  A    between atoms: _47  and  _50
REMARK   21  A    between atoms: _52  and  _54
REMARK   22  A    between atoms: _54  and  _55
REMARK   23  A    between atoms: _54  and  _57
REMARK   24  A    between atoms: _60  and  _62
REMARK   25  A    between atoms: _62  and  _63
REMARK   26  A    between atoms: _62  and  _65
REMARK   27  A    between atoms: _65  and  _66
REMARK   28  A    between atoms: _71  and  _72
REMARK   29  A    between atoms: _74  and  _76
REMARK   30  A    between atoms: _76  and  _77
REMARK   31  A    between atoms: _76  and  _79
REMARK   32  A    between atoms: _79  and  _80
REMARK   33  A    between atoms: _85  and  _87
REMARK   34  A    between atoms: _87  and  _88
REMARK   35  A    between atoms: _87  and  _90
REMARK   36  A    between atoms: _90  and  _91
REMARK   37  A    between atoms: _96  and  _98
REMARK   38  A    between atoms: _98  and  _99
REMARK   39  A    between atoms: _98  and  _101
REMARK   40  A    between atoms: _103  and  _105
REMARK   41  A    between atoms: _105  and  _106
REMARK   42  A    between atoms: _109  and  _111
REMARK   43  A    between atoms: _111  and  _112
REMARK   44  A    between atoms: _111  and  _114
REMARK   45  A    between atoms: _117  and  _119
REMARK   46  A    between atoms: _119  and  _120
REMARK   47  A    between atoms: _119  and  _122
REMARK   48  A    between atoms: _122  and  _123
REMARK   49  A    between atoms: _123  and  _124
REMARK   50  A    between atoms: _124  and  _125
REMARK   51  A    between atoms: _125  and  _126
REMARK   52  A    between atoms: _130  and  _132
REMARK   53  A    between atoms: _132  and  _133
REMARK   54  A    between atoms: _132  and  _135
REMARK   55  A    between atoms: _135  and  _136
REMARK   56  A    between atoms: _138  and  _140
REMARK   57  A    between atoms: _140  and  _141
REMARK   58  A    between atoms: _140  and  _143
REMARK   59  A    between atoms: _143  and  _144
REMARK   60  A    between atoms: _144  and  _145
REMARK   61  A    between atoms: _147  and  _149
REMARK   62  A    between atoms: _149  and  _150
REMARK   63  A    between atoms: _149  and  _152
REMARK   64  A    between atoms: _152  and  _153
REMARK   65  A    between atoms: _156  and  _158
REMARK   66  A    between atoms: _158  and  _159
REMARK   67  A    between atoms: _158  and  _161
REMARK   68  A    between atoms: _161  and  _162
REMARK   69  A    between atoms: _164  and  _166
REMARK   70  A    between atoms: _166  and  _167
REMARK   71  A    between atoms: _166  and  _169
REMARK   72  A    between atoms: _172  and  _174
REMARK   73  A    between atoms: _174  and  _175
REMARK   74  A    between atoms: _174  and  _177
REMARK   75  A    between atoms: _180  and  _182
REMARK   76  A    between atoms: _182  and  _183
REMARK   77  A    between atoms: _182  and  _185
REMARK   78  A    between atoms: _185  and  _186
REMARK   79  A    between atoms: _190  and  _191
REMARK   80  A    between atoms: _196  and  _198
REMARK   81  A    between atoms: _198  and  _199
REMARK   82  A    between atoms: _198  and  _201
REMARK   83  A    between atoms: _201  and  _202
REMARK   84  A    between atoms: _207  and  _208
REMARK   85  A    between atoms: _210  and  _212
REMARK   86  A    between atoms: _212  and  _213
REMARK   87  A    between atoms: _212  and  _215
REMARK   88  A    between atoms: _215  and  _216
REMARK   89  A    between atoms: _216  and  _217
REMARK   90  A    between atoms: _219  and  _221
REMARK   91  A    between atoms: _221  and  _222
REMARK   92  A    between atoms: _221  and  _224
REMARK   93  A    between atoms: _224  and  _225
REMARK   94  A    between atoms: _225  and  _226
REMARK   95  A    between atoms: _226  and  _227
REMARK   96  A    between atoms: _227  and  _228
REMARK   97  A    between atoms: _232  and  _234
REMARK   98  A    between atoms: _234  and  _235
REMARK   99  A    between atoms: _234  and  _237
REMARK  100  A    between atoms: _237  and  _238
REMARK  101  A    between atoms: _243  and  _245
REMARK  102  A    between atoms: _245  and  _246
REMARK  103  A    between atoms: _248  and  _250
REMARK  104  A    between atoms: _250  and  _251
REMARK  105  A    between atoms: _250  and  _253
REMARK  106  A    between atoms: _253  and  _254
REMARK  107  A    between atoms: _257  and  _259
REMARK  108  A    between atoms: _259  and  _260
REMARK  109  A    between atoms: _259  and  _262
REMARK  110  A    between atoms: _262  and  _263
REMARK  111  A    between atoms: _266  and  _268
REMARK  112  A    between atoms: _268  and  _269
REMARK  113  A    between atoms: _268  and  _271
REMARK  114  A    between atoms: _271  and  _272
REMARK  115  A    between atoms: _272  and  _273
REMARK  116  A    between atoms: _273  and  _274
REMARK  117  A    between atoms: _283  and  _285
REMARK  118  A    between atoms: _285  and  _286
REMARK  119  A    between atoms: _285  and  _288
REMARK  120  A    between atoms: _288  and  _289
REMARK  121  A    between atoms: _294  and  _296
REMARK  122  A    between atoms: _296  and  _297
REMARK  123  A    between atoms: _296  and  _299
REMARK  124  A    between atoms: _299  and  _300
REMARK  125  A    between atoms: _306  and  _308
REMARK  126  A    between atoms: _308  and  _309
REMARK  127  A    between atoms: _308  and  _311
REMARK  128  A    between atoms: _311  and  _312
REMARK  129  A    between atoms: _317  and  _319
REMARK  130  A    between atoms: _319  and  _320
REMARK  131  A    between atoms: _319  and  _322
REMARK  132  A    between atoms: _322  and  _323
REMARK  133  A    between atoms: _326  and  _328
REMARK  134  A    between atoms: _328  and  _329
REMARK  135  A    between atoms: _332  and  _334
REMARK  136  A    between atoms: _334  and  _335
REMARK  137  A    between atoms: _338  and  _340
REMARK  138  A    between atoms: _340  and  _341
REMARK  139  A    between atoms: _340  and  _343
REMARK  140  A    between atoms: _343  and  _344
REMARK  141  A    between atoms: _344  and  _345
REMARK  142  A    between atoms: _345  and  _346
REMARK  143  A    between atoms: _355  and  _357
REMARK  144  A    between atoms: _357  and  _358
REMARK  145  A    between atoms: _357  and  _360
REMARK  146  A    between atoms: _360  and  _361
REMARK  147  A    between atoms: _366  and  _368
REMARK  148  A    between atoms: _368  and  _369
REMARK  149  A    between atoms: _368  and  _371
REMARK  150  A    between atoms: _373  and  _375
REMARK  151  A    between atoms: _375  and  _376
REMARK  152  A    between atoms: _375  and  _378
REMARK  153  A    between atoms: _378  and  _379
REMARK  154  A    between atoms: _379  and  _380
REMARK  155  A    between atoms: _382  and  _384
REMARK  156  A    between atoms: _384  and  _385
REMARK  157  A    between atoms: _384  and  _387
REMARK  158  A    between atoms: _387  and  _388
REMARK  159  A    between atoms: _391  and  _393
REMARK  160  A    between atoms: _393  and  _394
REMARK  161  A    between atoms: _393  and  _396
REMARK  162  A    between atoms: _396  and  _397
REMARK  163  A    between atoms: _400  and  _402
REMARK  164  A    between atoms: _402  and  _403
REMARK  165  A    between atoms: _402  and  _405
REMARK  166  A    between atoms: _405  and  _406
REMARK  167  A    between atoms: _406  and  _407
REMARK  168  A    between atoms: _407  and  _408
REMARK  169  A    between atoms: _408  and  _409
REMARK  170  A    between atoms: _413  and  _415
REMARK  171  A    between atoms: _415  and  _416
REMARK  172  A    between atoms: _415  and  _418
REMARK  173  A    between atoms: _421  and  _423
REMARK  174  A    between atoms: _423  and  _424
REMARK  175  A    between atoms: _427  and  _429
REMARK  176  A    between atoms: _429  and  _430
REMARK  177  A    between atoms: _429  and  _432
REMARK  178  A    between atoms: _432  and  _433
REMARK  179  A    between atoms: _436  and  _438
REMARK  180  A    between atoms: _438  and  _439
REMARK  181  A    between atoms: _438  and  _441
REMARK  182  A    between atoms: _441  and  _442
REMARK  183  A    between atoms: _448  and  _450
REMARK  184  A    between atoms: _450  and  _451
REMARK  185  A    between atoms: _450  and  _453
REMARK  186  A    between atoms: _453  and  _454
REMARK  187  A    between atoms: _457  and  _459
REMARK  188  A    between atoms: _459  and  _460
REMARK  189  A    between atoms: _463  and  _465
REMARK  190  A    between atoms: _465  and  _466
REMARK  191  A    between atoms: _465  and  _468
REMARK  192  A    between atoms: _468  and  _469
REMARK  193  A    between atoms: _469  and  _470
REMARK  194  A    between atoms: _470  and  _471
REMARK  195  A    between atoms: _480  and  _482
REMARK  196  A    between atoms: _482  and  _483
REMARK  197  A    between atoms: _482  and  _485
REMARK  198  A    between atoms: _485  and  _486
REMARK  199  A    between atoms: _489  and  _491
REMARK  200  A    between atoms: _491  and  _492
REMARK  201  A    between atoms: _491  and  _494
REMARK  202  A    between atoms: _494  and  _495
REMARK  203  A    between atoms: _495  and  _496
REMARK  204  A    between atoms: _498  and  _500
REMARK  205  A    between atoms: _500  and  _501
REMARK  206  A    between atoms: _500  and  _503
REMARK  207  A    between atoms: _503  and  _504
REMARK  208  A    between atoms: _509  and  _510
REMARK  209  A    between atoms: _512  and  _514
REMARK  210  A    between atoms: _514  and  _515
REMARK  211  A    between atoms: _514  and  _517
REMARK  212  A    between atoms: _517  and  _518
REMARK  213  A    between atoms: _521  and  _523
REMARK  214  A    between atoms: _523  and  _524
REMARK  215  A    between atoms: _523  and  _526
REMARK  216  A    between atoms: _526  and  _527
REMARK  217  A    between atoms: _532  and  _533
REMARK                            x       y       z     vdW  Elec       q    Type
REMARK                         _______ _______ _______ _____ _____    ______ ____
ROOT
ATOM      1  CA  ALA A   3      18.563  13.927  34.517  0.00  0.00    +0.149 C 
ATOM      2  CB  ALA A   3      19.351  13.526  35.769  0.00  0.00    +0.031 C 
ENDROOT
BRANCH   1   3
ATOM      3  C   ALA A   3      17.068  13.756  34.759  0.00  0.00    +0.241 C 
ATOM      4  N   ASP A   4      16.715  12.750  35.550  0.00  0.00    -0.297 N 
ATOM      5  H   ASP A   4      17.460  12.153  35.963  0.00  0.00    +0.150 HD
ATOM      6  O   ALA A   3      16.256  14.513  34.236  0.00  0.00    -0.273 OA
BRANCH   4   7
ATOM      7  CA  ASP A   4      15.320  12.450  35.862  0.00  0.00    +0.160 C 
BRANCH   7   8
ATOM      8  C   ASP A   4      14.399  12.539  34.650  0.00  0.00    +0.241 C 
ATOM      9  O   ASP A   4      13.423  13.292  34.655  0.00  0.00    -0.273 OA
ATOM     10  N   PHE A   5      14.713  11.770  33.611  0.00  0.00    -0.298 N 
ATOM     11  H   PHE A   5      15.609  11.242  33.623  0.00  0.00    +0.150 HD
BRANCH  10  12
ATOM     12  CA  PHE A   5      13.831  11.649  32.454  0.00  0.00    +0.141 C 
BRANCH  12  13
ATOM     13  C   PHE A   5      13.990  10.251  31.856  0.00  0.00    +0.227 C 
ATOM     14  O   PHE A   5      14.936   9.522  32.183  0.00  0.00    -0.286 OA
ENDBRANCH  12  13
BRANCH  12  15
ATOM     15  CB  PHE A   5      14.174  12.710  31.394  0.00  0.00    +0.054 C 
BRANCH  15  16
ATOM     16  CG  PHE A   5      15.390  12.374  30.570  0.00  0.00    -0.020 A 
ATOM     17  CD2 PHE A   5      16.656  12.762  30.984  0.00  0.00    -0.004 A 
ATOM     18  CE2 PHE A   5      17.777  12.420  30.248  0.00  0.00    -0.000 A 
ATOM     19  CZ  PHE A   5      17.640  11.686  29.088  0.00  0.00    -0.000 A 
ATOM     20  CE1 PHE A   5      16.385  11.295  28.663  0.00  0.00    -0.000 A 
ATOM     21  CD1 PHE A   5      15.270  11.639  29.400  0.00  0.00    -0.004 A 
ENDBRANCH  15  16
ENDBRANCH  12  15
ENDBRANCH  10  12
ENDBRANCH   7   8
BRANCH   7  22
ATOM     22  CB  ASP A   4      14.798  13.384  36.962  0.00  0.00    +0.143 C 
BRANCH  22  23
ATOM     23  CG  ASP A   4      13.479  12.907  37.548  0.00  0.00    +0.367 C 
ATOM     24  OD2 ASP A   4      12.823  13.685  38.270  0.00  0.00    -0.246 OA
ATOM     25  OD1 ASP A   4      13.093  11.746  37.288  0.00  0.00    -0.246 OA
ENDBRANCH  22  23
ENDBRANCH   7  22
ENDBRANCH   4   7
ENDBRANCH   1   3
BRANCH   1  27
ATOM     26  C   VAL A   2      19.735  15.485  33.092  0.00  0.00    +0.241 C 
ATOM     27  N   ALA A   3      18.918  15.284  34.119  0.00  0.00    -0.297 N 
ATOM     28  H   ALA A   3      18.530  16.096  34.641  0.00  0.00    +0.150 HD
ATOM     29  O   VAL A   2      20.123  14.572  32.367  0.00  0.00    -0.273 OA
BRANCH  26  30
ATOM     30  CA  VAL A   2      20.217  16.905  32.858  0.00  0.00    +0.148 C 
BRANCH  30  33
ATOM     31  C   LYS A   1      22.373  16.339  33.781  0.00  0.00    +0.238 C 
ATOM     32  O   LYS A   1      21.879  16.154  34.892  0.00  0.00    -0.274 OA
ATOM     33  N   VAL A   2      21.668  16.809  32.759  0.00  0.00    -0.297 N 
ATOM     34  H   VAL A   2      22.151  17.109  31.888  0.00  0.00    +0.150 HD
BRANCH  31  35
ATOM     35  CA  LYS A   1      23.849  16.024  33.522  0.00  0.00    +0.145 C 
BRANCH  35  36
ATOM     36  N   LYS A   1      24.690  16.904  34.323  0.00  0.00    -0.238 NA
ATOM     37  H   LYS A   1      24.719  16.767  35.354  0.00  0.00    +0.142 HD
ENDBRANCH  35  36
BRANCH  35  38
ATOM     38  CB  LYS A   1      24.121  14.556  33.886  0.00  0.00    +0.026 C 
BRANCH  38  39
ATOM     39  CG  LYS A   1      25.588  14.147  33.839  0.00  0.00    -0.000 C 
BRANCH  39  40
ATOM     40  CD  LYS A   1      26.101  14.089  32.412  0.00  0.00    -0.024 C 
BRANCH  40  41
ATOM     41  CE  LYS A   1      27.585  13.759  32.365  0.00  0.00    -0.086 C 
BRANCH  41  42
ATOM     42  NZ  LYS A   1      28.077  13.682  30.966  0.00  0.00    +0.380 N 
ATOM     43  HZ1 LYS A   1      29.092  13.455  30.969  0.00  0.00    -0.089 HD
ATOM     44  HZ2 LYS A   1      27.926  14.597  30.496  0.00  0.00    -0.089 HD
ATOM     45  HZ3 LYS A   1      27.556  12.939  30.457  0.00  0.00    -0.089 HD
ENDBRANCH  41  42
ENDBRANCH  40  41
ENDBRANCH  39  40
ENDBRANCH  38  39
ENDBRANCH  35  38
ENDBRANCH  31  35
ENDBRANCH  30  33
BRANCH  30  46
ATOM     46  CB  VAL A   2      19.603  17.461  31.555  0.00  0.00    +0.027 C 
ATOM     47  CG2 VAL A   2      18.086  17.363  31.606  0.00  0.00    +0.002 C 
ATOM     48  CG1 VAL A   2      20.039  18.920  31.357  0.00  0.00    +0.002 C 
ENDBRANCH  30  46
ENDBRANCH  26  30
ENDBRANCH   1  27
TORSDOF 20
REMARK  Name = ../refined-set-2016/3zbx/3zbx_pocket.pdb
REMARK  217 active torsions:
REMARK  status: ('A' for Active; 'I' for Inactive)
REMARK    1  A    between atoms: _1  and  _3
REMARK    2  A    between atoms: _3  and  _4
REMARK    3  A    between atoms: _3  and  _6
REMARK    4  A    between atoms: _9  and  _11
REMARK    5  A    between atoms: _11  and  _12
REMARK    6  A    between atoms: _11  and  _14
REMARK    7  A    between atoms: _14  and  _15
REMARK    8  A    between atoms: _18  and  _20
REMARK    9  A    between atoms: _20  and  _21
REMARK   10  A    between atoms: _23  and  _25
REMARK   11  A    between atoms: _25  and  _26
REMARK   12  A    between atoms: _25  and  _28
REMARK   13  A    between atoms: _28  and  _29
REMARK   14  A    between atoms: _29  and  _30
REMARK   15  A    between atoms: _30  and  _31
REMARK   16  A    between atoms: _40  and  _42
REMARK   17  A    between atoms: _42  and  _43
REMARK   18  A    between atoms: _45  and  _47
REMARK   19  A    between atoms: _47  and  _48
REMARK   20  A    between atoms: _47  and  _50
REMARK   21  A    between atoms: _52  and  _54
REMARK   22  A    between atoms: _54  and  _55
REMARK   23  A    between atoms: _54  and  _57
REMARK   24  A    between atoms: _60  and  _62
REMARK   25  A    between atoms: _62  and  _63
REMARK   26  A    between atoms: _62  and  _65
REMARK   27  A    between atoms: _65  and  _66
REMARK   28  A    between atoms: _71  and  _72
REMARK   29  A    between atoms: _74  and  _76
REMARK   30  A    between atoms: _76  and  _77
REMARK   31  A    between atoms: _76  and  _79
REMARK   32  A    between atoms: _79  and  _80
REMARK   33  A    between atoms: _85  and  _87
REMARK   34  A    between atoms: _87  and  _88
REMARK   35  A    between atoms: _87  and  _90
REMARK   36  A    between atoms: _90  and  _91
REMARK   37  A    between atoms: _96  and  _98
REMARK   38  A    between atoms: _98  and  _99
REMARK   39  A    between atoms: _98  and  _101
REMARK   40  A    between atoms: _103  and  _105
REMARK   41  A    between atoms: _105  and  _106
REMARK   42  A    between atoms: _109  and  _111
REMARK   43  A    between atoms: _111  and  _112
REMARK   44  A    between atoms: _111  and  _114
REMARK   45  A    between atoms: _117  and  _119
REMARK   46  A    between atoms: _119  and  _120
REMARK   47  A    between atoms: _119  and  _122
REMARK   48  A    between atoms: _122  and  _123
REMARK   49  A    between atoms: _123  and  _124
REMARK   50  A    between atoms: _124  and  _125
REMARK   51  A    between atoms: _125  and  _126
REMARK   52  A    between atoms: _130  and  _132
REMARK   53  A    between atoms: _132  and  _133
REMARK   54  A    between atoms: _132  and  _135
REMARK   55  A    between atoms: _135  and  _136
REMARK   56  A    between atoms: _138  and  _140
REMARK   57  A    between atoms: _140  and  _141
REMARK   58  A    between atoms: _140  and  _143
REMARK   59  A    between atoms: _143  and  _144
REMARK   60  A    between atoms: _144  and  _145
REMARK   61  A    between atoms: _147  and  _149
REMARK   62  A    between atoms: _149  and  _150
REMARK   63  A    between atoms: _149  and  _152
REMARK   64  A    between atoms: _152  and  _153
REMARK   65  A    between atoms: _156  and  _158
REMARK   66  A    between atoms: _158  and  _159
REMARK   67  A    between atoms: _158  and  _161
REMARK   68  A    between atoms: _161  and  _162
REMARK   69  A    between atoms: _164  and  _166
REMARK   70  A    between atoms: _166  and  _167
REMARK   71  A    between atoms: _166  and  _169
REMARK   72  A    between atoms: _172  and  _174
REMARK   73  A    between atoms: _174  and  _175
REMARK   74  A    between atoms: _174  and  _177
REMARK   75  A    between atoms: _180  and  _182
REMARK   76  A    between atoms: _182  and  _183
REMARK   77  A    between atoms: _182  and  _185
REMARK   78  A    between atoms: _185  and  _186
REMARK   79  A    between atoms: _190  and  _191
REMARK   80  A    between atoms: _196  and  _198
REMARK   81  A    between atoms: _198  and  _199
REMARK   82  A    between atoms: _198  and  _201
REMARK   83  A    between atoms: _201  and  _202
REMARK   84  A    between atoms: _207  and  _208
REMARK   85  A    between atoms: _210  and  _212
REMARK   86  A    between atoms: _212  and  _213
REMARK   87  A    between atoms: _212  and  _215
REMARK   88  A    between atoms: _215  and  _216
REMARK   89  A    between atoms: _216  and  _217
REMARK   90  A    between atoms: _219  and  _221
REMARK   91  A    between atoms: _221  and  _222
REMARK   92  A    between atoms: _221  and  _224
REMARK   93  A    between atoms: _224  and  _225
REMARK   94  A    between atoms: _225  and  _226
REMARK   95  A    between atoms: _226  and  _227
REMARK   96  A    between atoms: _227  and  _228
REMARK   97  A    between atoms: _232  and  _234
REMARK   98  A    between atoms: _234  and  _235
REMARK   99  A    between atoms: _234  and  _237
REMARK  100  A    between atoms: _237  and  _238
REMARK  101  A    between atoms: _243  and  _245
REMARK  102  A    between atoms: _245  and  _246
REMARK  103  A    between atoms: _248  and  _250
REMARK  104  A    between atoms: _250  and  _251
REMARK  105  A    between atoms: _250  and  _253
REMARK  106  A    between atoms: _253  and  _254
REMARK  107  A    between atoms: _257  and  _259
REMARK  108  A    between atoms: _259  and  _260
REMARK  109  A    between atoms: _259  and  _262
REMARK  110  A    between atoms: _262  and  _263
REMARK  111  A    between atoms: _266  and  _268
REMARK  112  A    between atoms: _268  and  _269
REMARK  113  A    between atoms: _268  and  _271
REMARK  114  A    between atoms: _271  and  _272
REMARK  115  A    between atoms: _272  and  _273
REMARK  116  A    between atoms: _273  and  _274
REMARK  117  A    between atoms: _283  and  _285
REMARK  118  A    between atoms: _285  and  _286
REMARK  119  A    between atoms: _285  and  _288
REMARK  120  A    between atoms: _288  and  _289
REMARK  121  A    between atoms: _294  and  _296
REMARK  122  A    between atoms: _296  and  _297
REMARK  123  A    between atoms: _296  and  _299
REMARK  124  A    between atoms: _299  and  _300
REMARK  125  A    between atoms: _306  and  _308
REMARK  126  A    between atoms: _308  and  _309
REMARK  127  A    between atoms: _308  and  _311
REMARK  128  A    between atoms: _311  and  _312
REMARK  129  A    between atoms: _317  and  _319
REMARK  130  A    between atoms: _319  and  _320
REMARK  131  A    between atoms: _319  and  _322
REMARK  132  A    between atoms: _322  and  _323
REMARK  133  A    between atoms: _326  and  _328
REMARK  134  A    between atoms: _328  and  _329
REMARK  135  A    between atoms: _332  and  _334
REMARK  136  A    between atoms: _334  and  _335
REMARK  137  A    between atoms: _338  and  _340
REMARK  138  A    between atoms: _340  and  _341
REMARK  139  A    between atoms: _340  and  _343
REMARK  140  A    between atoms: _343  and  _344
REMARK  141  A    between atoms: _344  and  _345
REMARK  142  A    between atoms: _345  and  _346
REMARK  143  A    between atoms: _355  and  _357
REMARK  144  A    between atoms: _357  and  _358
REMARK  145  A    between atoms: _357  and  _360
REMARK  146  A    between atoms: _360  and  _361
REMARK  147  A    between atoms: _366  and  _368
REMARK  148  A    between atoms: _368  and  _369
REMARK  149  A    between atoms: _368  and  _371
REMARK  150  A    between atoms: _373  and  _375
REMARK  151  A    between atoms: _375  and  _376
REMARK  152  A    between atoms: _375  and  _378
REMARK  153  A    between atoms: _378  and  _379
REMARK  154  A    between atoms: _379  and  _380
REMARK  155  A    between atoms: _382  and  _384
REMARK  156  A    between atoms: _384  and  _385
REMARK  157  A    between atoms: _384  and  _387
REMARK  158  A    between atoms: _387  and  _388
REMARK  159  A    between atoms: _391  and  _393
REMARK  160  A    between atoms: _393  and  _394
REMARK  161  A    between atoms: _393  and  _396
REMARK  162  A    between atoms: _396  and  _397
REMARK  163  A    between atoms: _400  and  _402
REMARK  164  A    between atoms: _402  and  _403
REMARK  165  A    between atoms: _402  and  _405
REMARK  166  A    between atoms: _405  and  _406
REMARK  167  A    between atoms: _406  and  _407
REMARK  168  A    between atoms: _407  and  _408
REMARK  169  A    between atoms: _408  and  _409
REMARK  170  A    between atoms: _413  and  _415
REMARK  171  A    between atoms: _415  and  _416
REMARK  172  A    between atoms: _415  and  _418
REMARK  173  A    between atoms: _421  and  _423
REMARK  174  A    between atoms: _423  and  _424
REMARK  175  A    between atoms: _427  and  _429
REMARK  176  A    between atoms: _429  and  _430
REMARK  177  A    between atoms: _429  and  _432
REMARK  178  A    between atoms: _432  and  _433
REMARK  179  A    between atoms: _436  and  _438
REMARK  180  A    between atoms: _438  and  _439
REMARK  181  A    between atoms: _438  and  _441
REMARK  182  A    between atoms: _441  and  _442
REMARK  183  A    between atoms: _448  and  _450
REMARK  184  A    between atoms: _450  and  _451
REMARK  185  A    between atoms: _450  and  _453
REMARK  186  A    between atoms: _453  and  _454
REMARK  187  A    between atoms: _457  and  _459
REMARK  188  A    between atoms: _459  and  _460
REMARK  189  A    between atoms: _463  and  _465
REMARK  190  A    between atoms: _465  and  _466
REMARK  191  A    between atoms: _465  and  _468
REMARK  192  A    between atoms: _468  and  _469
REMARK  193  A    between atoms: _469  and  _470
REMARK  194  A    between atoms: _470  and  _471
REMARK  195  A    between atoms: _480  and  _482
REMARK  196  A    between atoms: _482  and  _483
REMARK  197  A    between atoms: _482  and  _485
REMARK  198  A    between atoms: _485  and  _486
REMARK  199  A    between atoms: _489  and  _491
REMARK  200  A    between atoms: _491  and  _492
REMARK  201  A    between atoms: _491  and  _494
REMARK  202  A    between atoms: _494  and  _495
REMARK  203  A    between atoms: _495  and  _496
REMARK  204  A    between atoms: _498  and  _500
REMARK  205  A    between atoms: _500  and  _501
REMARK  206  A    between atoms: _500  and  _503
REMARK  207  A    between atoms: _503  and  _504
REMARK  208  A    between atoms: _509  and  _510
REMARK  209  A    between atoms: _512  and  _514
REMARK  210  A    between atoms: _514  and  _515
REMARK  211  A    between atoms: _514  and  _517
REMARK  212  A    between atoms: _517  and  _518
REMARK  213  A    between atoms: _521  and  _523
REMARK  214  A    between atoms: _523  and  _524
REMARK  215  A    between atoms: _523  and  _526
REMARK  216  A    between atoms: _526  and  _527
REMARK  217  A    between atoms: _532  and  _533
REMARK                            x       y       z     vdW  Elec       q    Type
REMARK                         _______ _______ _______ _____ _____    ______ ____
ROOT
ATOM      1  CA  ASP A   4      10.916   9.251  39.241  0.00  0.00    +0.160 C 
ENDROOT
BRANCH   1   3
ATOM      2  C   ARG A   3      11.697   8.700  36.993  0.00  0.00    +0.241 C 
ATOM      3  N   ASP A   4      11.576   9.581  37.982  0.00  0.00    -0.297 N 
ATOM      4  H   ASP A   4      11.965  10.537  37.854  0.00  0.00    +0.150 HD
ATOM      5  O   ARG A   3      11.370   7.517  37.099  0.00  0.00    -0.273 OA
BRANCH   2   6
ATOM      6  CA  ARG A   3      12.266   9.239  35.686  0.00  0.00    +0.149 C 
BRANCH   6   9
ATOM      7  C   ALA A   2      14.459   8.215  35.790  0.00  0.00    +0.241 C 
ATOM      8  O   ALA A   2      14.649   8.694  36.903  0.00  0.00    -0.273 OA
ATOM      9  N   ARG A   3      13.316   8.387  35.130  0.00  0.00    -0.297 N 
ATOM     10  H   ARG A   3      13.169   7.914  34.216  0.00  0.00    +0.150 HD
BRANCH   7  11
ATOM     11  CA  ALA A   2      15.556   7.386  35.105  0.00  0.00    +0.149 C 
ATOM     12  CB  ALA A   2      16.829   8.215  34.980  0.00  0.00    +0.031 C 
BRANCH  11  15
ATOM     13  C   LEU A   1      14.560   5.720  33.641  0.00  0.00    +0.238 C 
ATOM     14  O   LEU A   1      14.395   4.928  34.570  0.00  0.00    -0.274 OA
ATOM     15  N   ALA A   2      15.153   6.900  33.793  0.00  0.00    -0.297 N 
ATOM     16  H   ALA A   2      15.333   7.490  32.955  0.00  0.00    +0.150 HD
BRANCH  13  17
ATOM     17  CA  LEU A   1      14.082   5.370  32.239  0.00  0.00    +0.145 C 
BRANCH  17  18
ATOM     18  N   LEU A   1      14.020   6.525  31.352  0.00  0.00    -0.238 NA
ATOM     19  H   LEU A   1      14.723   6.617  30.591  0.00  0.00    +0.142 HD
ENDBRANCH  17  18
BRANCH  17  20
ATOM     20  CB  LEU A   1      14.994   4.296  31.646  0.00  0.00    +0.026 C 
BRANCH  20  21
ATOM     21  CG  LEU A   1      14.484   3.645  30.362  0.00  0.00    +0.002 C 
ATOM     22  CD2 LEU A   1      13.057   3.163  30.569  0.00  0.00    +0.000 C 
ATOM     23  CD1 LEU A   1      15.394   2.478  29.986  0.00  0.00    +0.000 C 
ENDBRANCH  20  21
ENDBRANCH  17  20
ENDBRANCH  13  17
ENDBRANCH  11  15
ENDBRANCH   7  11
ENDBRANCH   6   9
BRANCH   6  24
ATOM     24  CB  ARG A   3      11.111   9.422  34.697  0.00  0.00    +0.033 C 
BRANCH  24  25
ATOM     25  CG  ARG A   3      10.000  10.314  35.259  0.00  0.00    +0.045 C 
BRANCH  25  26
ATOM     26  CD  ARG A   3       8.847  10.501  34.289  0.00  0.00    +0.174 C 
BRANCH  26  27
ATOM     27  NE  ARG A   3       8.008   9.310  34.179  0.00  0.00    -0.265 N 
ATOM     28  CZ  ARG A   3       7.077   8.960  35.065  0.00  0.00    +0.342 C 
ATOM     29  NH2 ARG A   3       6.857   9.704  36.142  0.00  0.00    -0.292 N 
ATOM     30 HH21 ARG A   3       6.128   9.423  36.828  0.00  0.00    +0.255 HD
ATOM     31 HH22 ARG A   3       7.414  10.568  36.300  0.00  0.00    +0.255 HD
ATOM     32  NH1 ARG A   3       6.350   7.870  34.867  0.00  0.00    -0.292 N 
ATOM     33 HH11 ARG A   3       5.623   7.597  35.559  0.00  0.00    +0.255 HD
ATOM     34 HH12 ARG A   3       6.506   7.288  34.020  0.00  0.00    +0.255 HD
ATOM     35  HE  ARG A   3       8.147   8.694  33.353  0.00  0.00    +0.259 HD
ENDBRANCH  26  27
ENDBRANCH  25  26
ENDBRANCH  24  25
ENDBRANCH   6  24
ENDBRANCH   2   6
ENDBRANCH   1   3
BRANCH   1  36
ATOM     36  C   ASP A   4      10.787  10.527  40.067  0.00  0.00    +0.241 C 
ATOM     37  N   MET A   5      10.188  10.412  41.243  0.00  0.00    -0.297 N 
ATOM     38  H   MET A   5       9.736   9.511  41.500  0.00  0.00    +0.150 HD
ATOM     39  O   ASP A   4      11.210  11.597  39.641  0.00  0.00    -0.273 OA
BRANCH  37  40
ATOM     40  CA  MET A   5      10.151  11.521  42.180  0.00  0.00    +0.149 C 
BRANCH  40  41
ATOM     41  C   MET A   5      11.181  11.264  43.267  0.00  0.00    +0.241 C 
ATOM     42  O   MET A   5      10.977  10.410  44.130  0.00  0.00    -0.273 OA
ATOM     43  N   TYR A   6      12.295  11.996  43.210  0.00  0.00    -0.297 N 
ATOM     44  H   TYR A   6      12.346  12.788  42.538  0.00  0.00    +0.150 HD
BRANCH  43  45
ATOM     45  CA  TYR A   6      13.445  11.716  44.065  0.00  0.00    +0.153 C 
BRANCH  45  46
ATOM     46  C   TYR A   6      13.466  12.554  45.335  0.00  0.00    +0.241 C 
ATOM     47  O   TYR A   6      14.228  12.274  46.254  0.00  0.00    -0.273 OA
ATOM     48  N   ASP A   7      12.635  13.589  45.376  0.00  0.00    -0.298 N 
ATOM     49  H   ASP A   7      12.173  13.903  44.499  0.00  0.00    +0.150 HD
BRANCH  48  50
ATOM     50  CA  ASP A   7      12.355  14.295  46.620  0.00  0.00    +0.148 C 
BRANCH  50  51
ATOM     51  C   ASP A   7      10.859  14.592  46.681  0.00  0.00    +0.227 C 
ATOM     52  O   ASP A   7      10.364  15.498  46.005  0.00  0.00    -0.286 OA
ENDBRANCH  50  51
BRANCH  50  53
ATOM     53  CB  ASP A   7      13.153  15.605  46.682  0.00  0.00    +0.142 C 
BRANCH  53  54
ATOM     54  CG  ASP A   7      13.046  16.293  48.031  0.00  0.00    +0.367 C 
ATOM     55  OD2 ASP A   7      12.157  15.922  48.829  0.00  0.00    -0.246 OA
ATOM     56  OD1 ASP A   7      13.857  17.207  48.293  0.00  0.00    -0.246 OA
ENDBRANCH  53  54
ENDBRANCH  50  53
ENDBRANCH  48  50
ENDBRANCH  45  46
BRANCH  45  57
ATOM     57  CB  TYR A   6      14.750  11.921  43.286  0.00  0.00    +0.055 C 
BRANCH  57  58
ATOM     58  CG  TYR A   6      14.981  10.882  42.209  0.00  0.00    -0.020 A 
ATOM     59  CD2 TYR A   6      15.410   9.598  42.539  0.00  0.00    -0.001 A 
ATOM     60  CE2 TYR A   6      15.622   8.639  41.566  0.00  0.00    +0.036 A 
ATOM     61  CZ  TYR A   6      15.407   8.953  40.240  0.00  0.00    +0.134 A 
ATOM     62  CE1 TYR A   6      14.979  10.219  39.881  0.00  0.00    +0.036 A 
ATOM     63  CD1 TYR A   6      14.769  11.177  40.866  0.00  0.00    -0.001 A 
BRANCH  61  64
ATOM     64  OH  TYR A   6      15.635   7.997  39.277  0.00  0.00    -0.506 OA
ATOM     65  HH  TYR A   6      14.798   7.830  38.774  0.00  0.00    +0.292 HD
ENDBRANCH  61  64
ENDBRANCH  57  58
ENDBRANCH  45  57
ENDBRANCH  43  45
ENDBRANCH  40  41
BRANCH  40  66
ATOM     66  CB  MET A   5       8.746  11.651  42.776  0.00  0.00    +0.041 C 
BRANCH  66  67
ATOM     67  CG  MET A   5       7.720  12.080  41.747  0.00  0.00    +0.060 C 
BRANCH  67  68
ATOM     68  SD  MET A   5       6.041  12.239  42.366  0.00  0.00    -0.139 S 
ATOM     69  CE  MET A   5       5.582  10.476  42.616  0.00  0.00    +0.069 C 
ENDBRANCH  67  68
ENDBRANCH  66  67
ENDBRANCH  40  66
ENDBRANCH  37  40
ENDBRANCH   1  36
BRANCH   1  70
ATOM     70  CB  ASP A   4      11.736   8.214  40.012  0.00  0.00    +0.143 C 
BRANCH  70  71
ATOM     71  CG  ASP A   4      10.887   7.359  40.940  0.00  0.00    +0.367 C 
ATOM     72  OD2 ASP A   4       9.849   7.846  41.447  0.00  0.00    -0.246 OA
ATOM     73  OD1 ASP A   4      11.267   6.189  41.162  0.00  0.00    -0.246 OA
ENDBRANCH  70  71
ENDBRANCH   1  70
TORSDOF 30
REMARK  Name = ../refined-set-2016/3zbx/3zbx_pocket.pdb
REMARK  217 active torsions:
REMARK  status: ('A' for Active; 'I' for Inactive)
REMARK    1  A    between atoms: _1  and  _3
REMARK    2  A    between atoms: _3  and  _4
REMARK    3  A    between atoms: _3  and  _6
REMARK    4  A    between atoms: _9  and  _11
REMARK    5  A    between atoms: _11  and  _12
REMARK    6  A    between atoms: _11  and  _14
REMARK    7  A    between atoms: _14  and  _15
REMARK    8  A    between atoms: _18  and  _20
REMARK    9  A    between atoms: _20  and  _21
REMARK   10  A    between atoms: _23  and  _25
REMARK   11  A    between atoms: _25  and  _26
REMARK   12  A    between atoms: _25  and  _28
REMARK   13  A    between atoms: _28  and  _29
REMARK   14  A    between atoms: _29  and  _30
REMARK   15  A    between atoms: _30  and  _31
REMARK   16  A    between atoms: _40  and  _42
REMARK   17  A    between atoms: _42  and  _43
REMARK   18  A    between atoms: _45  and  _47
REMARK   19  A    between atoms: _47  and  _48
REMARK   20  A    between atoms: _47  and  _50
REMARK   21  A    between atoms: _52  and  _54
REMARK   22  A    between atoms: _54  and  _55
REMARK   23  A    between atoms: _54  and  _57
REMARK   24  A    between atoms: _60  and  _62
REMARK   25  A    between atoms: _62  and  _63
REMARK   26  A    between atoms: _62  and  _65
REMARK   27  A    between atoms: _65  and  _66
REMARK   28  A    between atoms: _71  and  _72
REMARK   29  A    between atoms: _74  and  _76
REMARK   30  A    between atoms: _76  and  _77
REMARK   31  A    between atoms: _76  and  _79
REMARK   32  A    between atoms: _79  and  _80
REMARK   33  A    between atoms: _85  and  _87
REMARK   34  A    between atoms: _87  and  _88
REMARK   35  A    between atoms: _87  and  _90
REMARK   36  A    between atoms: _90  and  _91
REMARK   37  A    between atoms: _96  and  _98
REMARK   38  A    between atoms: _98  and  _99
REMARK   39  A    between atoms: _98  and  _101
REMARK   40  A    between atoms: _103  and  _105
REMARK   41  A    between atoms: _105  and  _106
REMARK   42  A    between atoms: _109  and  _111
REMARK   43  A    between atoms: _111  and  _112
REMARK   44  A    between atoms: _111  and  _114
REMARK   45  A    between atoms: _117  and  _119
REMARK   46  A    between atoms: _119  and  _120
REMARK   47  A    between atoms: _119  and  _122
REMARK   48  A    between atoms: _122  and  _123
REMARK   49  A    between atoms: _123  and  _124
REMARK   50  A    between atoms: _124  and  _125
REMARK   51  A    between atoms: _125  and  _126
REMARK   52  A    between atoms: _130  and  _132
REMARK   53  A    between atoms: _132  and  _133
REMARK   54  A    between atoms: _132  and  _135
REMARK   55  A    between atoms: _135  and  _136
REMARK   56  A    between atoms: _138  and  _140
REMARK   57  A    between atoms: _140  and  _141
REMARK   58  A    between atoms: _140  and  _143
REMARK   59  A    between atoms: _143  and  _144
REMARK   60  A    between atoms: _144  and  _145
REMARK   61  A    between atoms: _147  and  _149
REMARK   62  A    between atoms: _149  and  _150
REMARK   63  A    between atoms: _149  and  _152
REMARK   64  A    between atoms: _152  and  _153
REMARK   65  A    between atoms: _156  and  _158
REMARK   66  A    between atoms: _158  and  _159
REMARK   67  A    between atoms: _158  and  _161
REMARK   68  A    between atoms: _161  and  _162
REMARK   69  A    between atoms: _164  and  _166
REMARK   70  A    between atoms: _166  and  _167
REMARK   71  A    between atoms: _166  and  _169
REMARK   72  A    between atoms: _172  and  _174
REMARK   73  A    between atoms: _174  and  _175
REMARK   74  A    between atoms: _174  and  _177
REMARK   75  A    between atoms: _180  and  _182
REMARK   76  A    between atoms: _182  and  _183
REMARK   77  A    between atoms: _182  and  _185
REMARK   78  A    between atoms: _185  and  _186
REMARK   79  A    between atoms: _190  and  _191
REMARK   80  A    between atoms: _196  and  _198
REMARK   81  A    between atoms: _198  and  _199
REMARK   82  A    between atoms: _198  and  _201
REMARK   83  A    between atoms: _201  and  _202
REMARK   84  A    between atoms: _207  and  _208
REMARK   85  A    between atoms: _210  and  _212
REMARK   86  A    between atoms: _212  and  _213
REMARK   87  A    between atoms: _212  and  _215
REMARK   88  A    between atoms: _215  and  _216
REMARK   89  A    between atoms: _216  and  _217
REMARK   90  A    between atoms: _219  and  _221
REMARK   91  A    between atoms: _221  and  _222
REMARK   92  A    between atoms: _221  and  _224
REMARK   93  A    between atoms: _224  and  _225
REMARK   94  A    between atoms: _225  and  _226
REMARK   95  A    between atoms: _226  and  _227
REMARK   96  A    between atoms: _227  and  _228
REMARK   97  A    between atoms: _232  and  _234
REMARK   98  A    between atoms: _234  and  _235
REMARK   99  A    between atoms: _234  and  _237
REMARK  100  A    between atoms: _237  and  _238
REMARK  101  A    between atoms: _243  and  _245
REMARK  102  A    between atoms: _245  and  _246
REMARK  103  A    between atoms: _248  and  _250
REMARK  104  A    between atoms: _250  and  _251
REMARK  105  A    between atoms: _250  and  _253
REMARK  106  A    between atoms: _253  and  _254
REMARK  107  A    between atoms: _257  and  _259
REMARK  108  A    between atoms: _259  and  _260
REMARK  109  A    between atoms: _259  and  _262
REMARK  110  A    between atoms: _262  and  _263
REMARK  111  A    between atoms: _266  and  _268
REMARK  112  A    between atoms: _268  and  _269
REMARK  113  A    between atoms: _268  and  _271
REMARK  114  A    between atoms: _271  and  _272
REMARK  115  A    between atoms: _272  and  _273
REMARK  116  A    between atoms: _273  and  _274
REMARK  117  A    between atoms: _283  and  _285
REMARK  118  A    between atoms: _285  and  _286
REMARK  119  A    between atoms: _285  and  _288
REMARK  120  A    between atoms: _288  and  _289
REMARK  121  A    between atoms: _294  and  _296
REMARK  122  A    between atoms: _296  and  _297
REMARK  123  A    between atoms: _296  and  _299
REMARK  124  A    between atoms: _299  and  _300
REMARK  125  A    between atoms: _306  and  _308
REMARK  126  A    between atoms: _308  and  _309
REMARK  127  A    between atoms: _308  and  _311
REMARK  128  A    between atoms: _311  and  _312
REMARK  129  A    between atoms: _317  and  _319
REMARK  130  A    between atoms: _319  and  _320
REMARK  131  A    between atoms: _319  and  _322
REMARK  132  A    between atoms: _322  and  _323
REMARK  133  A    between atoms: _326  and  _328
REMARK  134  A    between atoms: _328  and  _329
REMARK  135  A    between atoms: _332  and  _334
REMARK  136  A    between atoms: _334  and  _335
REMARK  137  A    between atoms: _338  and  _340
REMARK  138  A    between atoms: _340  and  _341
REMARK  139  A    between atoms: _340  and  _343
REMARK  140  A    between atoms: _343  and  _344
REMARK  141  A    between atoms: _344  and  _345
REMARK  142  A    between atoms: _345  and  _346
REMARK  143  A    between atoms: _355  and  _357
REMARK  144  A    between atoms: _357  and  _358
REMARK  145  A    between atoms: _357  and  _360
REMARK  146  A    between atoms: _360  and  _361
REMARK  147  A    between atoms: _366  and  _368
REMARK  148  A    between atoms: _368  and  _369
REMARK  149  A    between atoms: _368  and  _371
REMARK  150  A    between atoms: _373  and  _375
REMARK  151  A    between atoms: _375  and  _376
REMARK  152  A    between atoms: _375  and  _378
REMARK  153  A    between atoms: _378  and  _379
REMARK  154  A    between atoms: _379  and  _380
REMARK  155  A    between atoms: _382  and  _384
REMARK  156  A    between atoms: _384  and  _385
REMARK  157  A    between atoms: _384  and  _387
REMARK  158  A    between atoms: _387  and  _388
REMARK  159  A    between atoms: _391  and  _393
REMARK  160  A    between atoms: _393  and  _394
REMARK  161  A    between atoms: _393  and  _396
REMARK  162  A    between atoms: _396  and  _397
REMARK  163  A    between atoms: _400  and  _402
REMARK  164  A    between atoms: _402  and  _403
REMARK  165  A    between atoms: _402  and  _405
REMARK  166  A    between atoms: _405  and  _406
REMARK  167  A    between atoms: _406  and  _407
REMARK  168  A    between atoms: _407  and  _408
REMARK  169  A    between atoms: _408  and  _409
REMARK  170  A    between atoms: _413  and  _415
REMARK  171  A    between atoms: _415  and  _416
REMARK  172  A    between atoms: _415  and  _418
REMARK  173  A    between atoms: _421  and  _423
REMARK  174  A    between atoms: _423  and  _424
REMARK  175  A    between atoms: _427  and  _429
REMARK  176  A    between atoms: _429  and  _430
REMARK  177  A    between atoms: _429  and  _432
REMARK  178  A    between atoms: _432  and  _433
REMARK  179  A    between atoms: _436  and  _438
REMARK  180  A    between atoms: _438  and  _439
REMARK  181  A    between atoms: _438  and  _441
REMARK  182  A    between atoms: _441  and  _442
REMARK  183  A    between atoms: _448  and  _450
REMARK  184  A    between atoms: _450  and  _451
REMARK  185  A    between atoms: _450  and  _453
REMARK  186  A    between atoms: _453  and  _454
REMARK  187  A    between atoms: _457  and  _459
REMARK  188  A    between atoms: _459  and  _460
REMARK  189  A    between atoms: _463  and  _465
REMARK  190  A    between atoms: _465  and  _466
REMARK  191  A    between atoms: _465  and  _468
REMARK  192  A    between atoms: _468  and  _469
REMARK  193  A    between atoms: _469  and  _470
REMARK  194  A    between atoms: _470  and  _471
REMARK  195  A    between atoms: _480  and  _482
REMARK  196  A    between atoms: _482  and  _483
REMARK  197  A    between atoms: _482  and  _485
REMARK  198  A    between atoms: _485  and  _486
REMARK  199  A    between atoms: _489  and  _491
REMARK  200  A    between atoms: _491  and  _492
REMARK  201  A    between atoms: _491  and  _494
REMARK  202  A    between atoms: _494  and  _495
REMARK  203  A    between atoms: _495  and  _496
REMARK  204  A    between atoms: _498  and  _500
REMARK  205  A    between atoms: _500  and  _501
REMARK  206  A    between atoms: _500  and  _503
REMARK  207  A    between atoms: _503  and  _504
REMARK  208  A    between atoms: _509  and  _510
REMARK  209  A    between atoms: _512  and  _514
REMARK  210  A    between atoms: _514  and  _515
REMARK  211  A    between atoms: _514  and  _517
REMARK  212  A    between atoms: _517  and  _518
REMARK  213  A    between atoms: _521  and  _523
REMARK  214  A    between atoms: _523  and  _524
REMARK  215  A    between atoms: _523  and  _526
REMARK  216  A    between atoms: _526  and  _527
REMARK  217  A    between atoms: _532  and  _533
REMARK                            x       y       z     vdW  Elec       q    Type
REMARK                         _______ _______ _______ _____ _____    ______ ____
ROOT
ATOM      1  CG  TYR A   1       7.047  15.680  43.012  0.00  0.00    -0.020 A 
ATOM      2  CD2 TYR A   1       8.295  15.542  43.606  0.00  0.00    -0.001 A 
ATOM      3  CE2 TYR A   1       9.454  15.504  42.845  0.00  0.00    +0.036 A 
ATOM      4  CZ  TYR A   1       9.371  15.606  41.473  0.00  0.00    +0.134 A 
ATOM      5  CE1 TYR A   1       8.140  15.741  40.856  0.00  0.00    +0.036 A 
ATOM      6  CD1 TYR A   1       6.988  15.777  41.628  0.00  0.00    -0.001 A 
ENDROOT
BRANCH   4   7
ATOM      7  OH  TYR A   1      10.517  15.590  40.720  0.00  0.00    -0.506 OA
ATOM      8  HH  TYR A   1      10.482  14.832  40.085  0.00  0.00    +0.292 HD
ENDBRANCH   4   7
BRANCH   1   9
ATOM      9  CB  TYR A   1       5.792  15.734  43.848  0.00  0.00    +0.051 C 
BRANCH   9  10
ATOM     10  CA  TYR A   1       5.460  17.141  44.356  0.00  0.00    +0.137 C 
BRANCH  10  11
ATOM     11  N   TYR A   1       6.508  17.613  45.258  0.00  0.00    -0.239 NA
ATOM     12  H   TYR A   1       6.660  17.114  46.158  0.00  0.00    +0.142 HD
ENDBRANCH  10  11
BRANCH  10  13
ATOM     13  C   TYR A   1       4.111  17.127  45.075  0.00  0.00    +0.224 C 
ATOM     14  O   TYR A   1       4.009  16.628  46.194  0.00  0.00    -0.287 OA
ENDBRANCH  10  13
ENDBRANCH   9  10
ENDBRANCH   1   9
TORSDOF 5
REMARK  Name = ../refined-set-2016/3zbx/3zbx_pocket.pdb
REMARK  217 active torsions:
REMARK  status: ('A' for Active; 'I' for Inactive)
REMARK    1  A    between atoms: _1  and  _3
REMARK    2  A    between atoms: _3  and  _4
REMARK    3  A    between atoms: _3  and  _6
REMARK    4  A    between atoms: _9  and  _11
REMARK    5  A    between atoms: _11  and  _12
REMARK    6  A    between atoms: _11  and  _14
REMARK    7  A    between atoms: _14  and  _15
REMARK    8  A    between atoms: _18  and  _20
REMARK    9  A    between atoms: _20  and  _21
REMARK   10  A    between atoms: _23  and  _25
REMARK   11  A    between atoms: _25  and  _26
REMARK   12  A    between atoms: _25  and  _28
REMARK   13  A    between atoms: _28  and  _29
REMARK   14  A    between atoms: _29  and  _30
REMARK   15  A    between atoms: _30  and  _31
REMARK   16  A    between atoms: _40  and  _42
REMARK   17  A    between atoms: _42  and  _43
REMARK   18  A    between atoms: _45  and  _47
REMARK   19  A    between atoms: _47  and  _48
REMARK   20  A    between atoms: _47  and  _50
REMARK   21  A    between atoms: _52  and  _54
REMARK   22  A    between atoms: _54  and  _55
REMARK   23  A    between atoms: _54  and  _57
REMARK   24  A    between atoms: _60  and  _62
REMARK   25  A    between atoms: _62  and  _63
REMARK   26  A    between atoms: _62  and  _65
REMARK   27  A    between atoms: _65  and  _66
REMARK   28  A    between atoms: _71  and  _72
REMARK   29  A    between atoms: _74  and  _76
REMARK   30  A    between atoms: _76  and  _77
REMARK   31  A    between atoms: _76  and  _79
REMARK   32  A    between atoms: _79  and  _80
REMARK   33  A    between atoms: _85  and  _87
REMARK   34  A    between atoms: _87  and  _88
REMARK   35  A    between atoms: _87  and  _90
REMARK   36  A    between atoms: _90  and  _91
REMARK   37  A    between atoms: _96  and  _98
REMARK   38  A    between atoms: _98  and  _99
REMARK   39  A    between atoms: _98  and  _101
REMARK   40  A    between atoms: _103  and  _105
REMARK   41  A    between atoms: _105  and  _106
REMARK   42  A    between atoms: _109  and  _111
REMARK   43  A    between atoms: _111  and  _112
REMARK   44  A    between atoms: _111  and  _114
REMARK   45  A    between atoms: _117  and  _119
REMARK   46  A    between atoms: _119  and  _120
REMARK   47  A    between atoms: _119  and  _122
REMARK   48  A    between atoms: _122  and  _123
REMARK   49  A    between atoms: _123  and  _124
REMARK   50  A    between atoms: _124  and  _125
REMARK   51  A    between atoms: _125  and  _126
REMARK   52  A    between atoms: _130  and  _132
REMARK   53  A    between atoms: _132  and  _133
REMARK   54  A    between atoms: _132  and  _135
REMARK   55  A    between atoms: _135  and  _136
REMARK   56  A    between atoms: _138  and  _140
REMARK   57  A    between atoms: _140  and  _141
REMARK   58  A    between atoms: _140  and  _143
REMARK   59  A    between atoms: _143  and  _144
REMARK   60  A    between atoms: _144  and  _145
REMARK   61  A    between atoms: _147  and  _149
REMARK   62  A    between atoms: _149  and  _150
REMARK   63  A    between atoms: _149  and  _152
REMARK   64  A    between atoms: _152  and  _153
REMARK   65  A    between atoms: _156  and  _158
REMARK   66  A    between atoms: _158  and  _159
REMARK   67  A    between atoms: _158  and  _161
REMARK   68  A    between atoms: _161  and  _162
REMARK   69  A    between atoms: _164  and  _166
REMARK   70  A    between atoms: _166  and  _167
REMARK   71  A    between atoms: _166  and  _169
REMARK   72  A    between atoms: _172  and  _174
REMARK   73  A    between atoms: _174  and  _175
REMARK   74  A    between atoms: _174  and  _177
REMARK   75  A    between atoms: _180  and  _182
REMARK   76  A    between atoms: _182  and  _183
REMARK   77  A    between atoms: _182  and  _185
REMARK   78  A    between atoms: _185  and  _186
REMARK   79  A    between atoms: _190  and  _191
REMARK   80  A    between atoms: _196  and  _198
REMARK   81  A    between atoms: _198  and  _199
REMARK   82  A    between atoms: _198  and  _201
REMARK   83  A    between atoms: _201  and  _202
REMARK   84  A    between atoms: _207  and  _208
REMARK   85  A    between atoms: _210  and  _212
REMARK   86  A    between atoms: _212  and  _213
REMARK   87  A    between atoms: _212  and  _215
REMARK   88  A    between atoms: _215  and  _216
REMARK   89  A    between atoms: _216  and  _217
REMARK   90  A    between atoms: _219  and  _221
REMARK   91  A    between atoms: _221  and  _222
REMARK   92  A    between atoms: _221  and  _224
REMARK   93  A    between atoms: _224  and  _225
REMARK   94  A    between atoms: _225  and  _226
REMARK   95  A    between atoms: _226  and  _227
REMARK   96  A    between atoms: _227  and  _228
REMARK   97  A    between atoms: _232  and  _234
REMARK   98  A    between atoms: _234  and  _235
REMARK   99  A    between atoms: _234  and  _237
REMARK  100  A    between atoms: _237  and  _238
REMARK  101  A    between atoms: _243  and  _245
REMARK  102  A    between atoms: _245  and  _246
REMARK  103  A    between atoms: _248  and  _250
REMARK  104  A    between atoms: _250  and  _251
REMARK  105  A    between atoms: _250  and  _253
REMARK  106  A    between atoms: _253  and  _254
REMARK  107  A    between atoms: _257  and  _259
REMARK  108  A    between atoms: _259  and  _260
REMARK  109  A    between atoms: _259  and  _262
REMARK  110  A    between atoms: _262  and  _263
REMARK  111  A    between atoms: _266  and  _268
REMARK  112  A    between atoms: _268  and  _269
REMARK  113  A    between atoms: _268  and  _271
REMARK  114  A    between atoms: _271  and  _272
REMARK  115  A    between atoms: _272  and  _273
REMARK  116  A    between atoms: _273  and  _274
REMARK  117  A    between atoms: _283  and  _285
REMARK  118  A    between atoms: _285  and  _286
REMARK  119  A    between atoms: _285  and  _288
REMARK  120  A    between atoms: _288  and  _289
REMARK  121  A    between atoms: _294  and  _296
REMARK  122  A    between atoms: _296  and  _297
REMARK  123  A    between atoms: _296  and  _299
REMARK  124  A    between atoms: _299  and  _300
REMARK  125  A    between atoms: _306  and  _308
REMARK  126  A    between atoms: _308  and  _309
REMARK  127  A    between atoms: _308  and  _311
REMARK  128  A    between atoms: _311  and  _312
REMARK  129  A    between atoms: _317  and  _319
REMARK  130  A    between atoms: _319  and  _320
REMARK  131  A    between atoms: _319  and  _322
REMARK  132  A    between atoms: _322  and  _323
REMARK  133  A    between atoms: _326  and  _328
REMARK  134  A    between atoms: _328  and  _329
REMARK  135  A    between atoms: _332  and  _334
REMARK  136  A    between atoms: _334  and  _335
REMARK  137  A    between atoms: _338  and  _340
REMARK  138  A    between atoms: _340  and  _341
REMARK  139  A    between atoms: _340  and  _343
REMARK  140  A    between atoms: _343  and  _344
REMARK  141  A    between atoms: _344  and  _345
REMARK  142  A    between atoms: _345  and  _346
REMARK  143  A    between atoms: _355  and  _357
REMARK  144  A    between atoms: _357  and  _358
REMARK  145  A    between atoms: _357  and  _360
REMARK  146  A    between atoms: _360  and  _361
REMARK  147  A    between atoms: _366  and  _368
REMARK  148  A    between atoms: _368  and  _369
REMARK  149  A    between atoms: _368  and  _371
REMARK  150  A    between atoms: _373  and  _375
REMARK  151  A    between atoms: _375  and  _376
REMARK  152  A    between atoms: _375  and  _378
REMARK  153  A    between atoms: _378  and  _379
REMARK  154  A    between atoms: _379  and  _380
REMARK  155  A    between atoms: _382  and  _384
REMARK  156  A    between atoms: _384  and  _385
REMARK  157  A    between atoms: _384  and  _387
REMARK  158  A    between atoms: _387  and  _388
REMARK  159  A    between atoms: _391  and  _393
REMARK  160  A    between atoms: _393  and  _394
REMARK  161  A    between atoms: _393  and  _396
REMARK  162  A    between atoms: _396  and  _397
REMARK  163  A    between atoms: _400  and  _402
REMARK  164  A    between atoms: _402  and  _403
REMARK  165  A    between atoms: _402  and  _405
REMARK  166  A    between atoms: _405  and  _406
REMARK  167  A    between atoms: _406  and  _407
REMARK  168  A    between atoms: _407  and  _408
REMARK  169  A    between atoms: _408  and  _409
REMARK  170  A    between atoms: _413  and  _415
REMARK  171  A    between atoms: _415  and  _416
REMARK  172  A    between atoms: _415  and  _418
REMARK  173  A    between atoms: _421  and  _423
REMARK  174  A    between atoms: _423  and  _424
REMARK  175  A    between atoms: _427  and  _429
REMARK  176  A    between atoms: _429  and  _430
REMARK  177  A    between atoms: _429  and  _432
REMARK  178  A    between atoms: _432  and  _433
REMARK  179  A    between atoms: _436  and  _438
REMARK  180  A    between atoms: _438  and  _439
REMARK  181  A    between atoms: _438  and  _441
REMARK  182  A    between atoms: _441  and  _442
REMARK  183  A    between atoms: _448  and  _450
REMARK  184  A    between atoms: _450  and  _451
REMARK  185  A    between atoms: _450  and  _453
REMARK  186  A    between atoms: _453  and  _454
REMARK  187  A    between atoms: _457  and  _459
REMARK  188  A    between atoms: _459  and  _460
REMARK  189  A    between atoms: _463  and  _465
REMARK  190  A    between atoms: _465  and  _466
REMARK  191  A    between atoms: _465  and  _468
REMARK  192  A    between atoms: _468  and  _469
REMARK  193  A    between atoms: _469  and  _470
REMARK  194  A    between atoms: _470  and  _471
REMARK  195  A    between atoms: _480  and  _482
REMARK  196  A    between atoms: _482  and  _483
REMARK  197  A    between atoms: _482  and  _485
REMARK  198  A    between atoms: _485  and  _486
REMARK  199  A    between atoms: _489  and  _491
REMARK  200  A    between atoms: _491  and  _492
REMARK  201  A    between atoms: _491  and  _494
REMARK  202  A    between atoms: _494  and  _495
REMARK  203  A    between atoms: _495  and  _496
REMARK  204  A    between atoms: _498  and  _500
REMARK  205  A    between atoms: _500  and  _501
REMARK  206  A    between atoms: _500  and  _503
REMARK  207  A    between atoms: _503  and  _504
REMARK  208  A    between atoms: _509  and  _510
REMARK  209  A    between atoms: _512  and  _514
REMARK  210  A    between atoms: _514  and  _515
REMARK  211  A    between atoms: _514  and  _517
REMARK  212  A    between atoms: _517  and  _518
REMARK  213  A    between atoms: _521  and  _523
REMARK  214  A    between atoms: _523  and  _524
REMARK  215  A    between atoms: _523  and  _526
REMARK  216  A    between atoms: _526  and  _527
REMARK  217  A    between atoms: _532  and  _533
REMARK                            x       y       z     vdW  Elec       q    Type
REMARK                         _______ _______ _______ _____ _____    ______ ____
ROOT
ATOM      1  O   HOH     1      27.112  12.897  47.052  0.00  0.00    +0.000 OA
ENDROOT
TORSDOF 0
REMARK  Name = ../refined-set-2016/3zbx/3zbx_pocket.pdb
REMARK  217 active torsions:
REMARK  status: ('A' for Active; 'I' for Inactive)
REMARK    1  A    between atoms: _1  and  _3
REMARK    2  A    between atoms: _3  and  _4
REMARK    3  A    between atoms: _3  and  _6
REMARK    4  A    between atoms: _9  and  _11
REMARK    5  A    between atoms: _11  and  _12
REMARK    6  A    between atoms: _11  and  _14
REMARK    7  A    between atoms: _14  and  _15
REMARK    8  A    between atoms: _18  and  _20
REMARK    9  A    between atoms: _20  and  _21
REMARK   10  A    between atoms: _23  and  _25
REMARK   11  A    between atoms: _25  and  _26
REMARK   12  A    between atoms: _25  and  _28
REMARK   13  A    between atoms: _28  and  _29
REMARK   14  A    between atoms: _29  and  _30
REMARK   15  A    between atoms: _30  and  _31
REMARK   16  A    between atoms: _40  and  _42
REMARK   17  A    between atoms: _42  and  _43
REMARK   18  A    between atoms: _45  and  _47
REMARK   19  A    between atoms: _47  and  _48
REMARK   20  A    between atoms: _47  and  _50
REMARK   21  A    between atoms: _52  and  _54
REMARK   22  A    between atoms: _54  and  _55
REMARK   23  A    between atoms: _54  and  _57
REMARK   24  A    between atoms: _60  and  _62
REMARK   25  A    between atoms: _62  and  _63
REMARK   26  A    between atoms: _62  and  _65
REMARK   27  A    between atoms: _65  and  _66
REMARK   28  A    between atoms: _71  and  _72
REMARK   29  A    between atoms: _74  and  _76
REMARK   30  A    between atoms: _76  and  _77
REMARK   31  A    between atoms: _76  and  _79
REMARK   32  A    between atoms: _79  and  _80
REMARK   33  A    between atoms: _85  and  _87
REMARK   34  A    between atoms: _87  and  _88
REMARK   35  A    between atoms: _87  and  _90
REMARK   36  A    between atoms: _90  and  _91
REMARK   37  A    between atoms: _96  and  _98
REMARK   38  A    between atoms: _98  and  _99
REMARK   39  A    between atoms: _98  and  _101
REMARK   40  A    between atoms: _103  and  _105
REMARK   41  A    between atoms: _105  and  _106
REMARK   42  A    between atoms: _109  and  _111
REMARK   43  A    between atoms: _111  and  _112
REMARK   44  A    between atoms: _111  and  _114
REMARK   45  A    between atoms: _117  and  _119
REMARK   46  A    between atoms: _119  and  _120
REMARK   47  A    between atoms: _119  and  _122
REMARK   48  A    between atoms: _122  and  _123
REMARK   49  A    between atoms: _123  and  _124
REMARK   50  A    between atoms: _124  and  _125
REMARK   51  A    between atoms: _125  and  _126
REMARK   52  A    between atoms: _130  and  _132
REMARK   53  A    between atoms: _132  and  _133
REMARK   54  A    between atoms: _132  and  _135
REMARK   55  A    between atoms: _135  and  _136
REMARK   56  A    between atoms: _138  and  _140
REMARK   57  A    between atoms: _140  and  _141
REMARK   58  A    between atoms: _140  and  _143
REMARK   59  A    between atoms: _143  and  _144
REMARK   60  A    between atoms: _144  and  _145
REMARK   61  A    between atoms: _147  and  _149
REMARK   62  A    between atoms: _149  and  _150
REMARK   63  A    between atoms: _149  and  _152
REMARK   64  A    between atoms: _152  and  _153
REMARK   65  A    between atoms: _156  and  _158
REMARK   66  A    between atoms: _158  and  _159
REMARK   67  A    between atoms: _158  and  _161
REMARK   68  A    between atoms: _161  and  _162
REMARK   69  A    between atoms: _164  and  _166
REMARK   70  A    between atoms: _166  and  _167
REMARK   71  A    between atoms: _166  and  _169
REMARK   72  A    between atoms: _172  and  _174
REMARK   73  A    between atoms: _174  and  _175
REMARK   74  A    between atoms: _174  and  _177
REMARK   75  A    between atoms: _180  and  _182
REMARK   76  A    between atoms: _182  and  _183
REMARK   77  A    between atoms: _182  and  _185
REMARK   78  A    between atoms: _185  and  _186
REMARK   79  A    between atoms: _190  and  _191
REMARK   80  A    between atoms: _196  and  _198
REMARK   81  A    between atoms: _198  and  _199
REMARK   82  A    between atoms: _198  and  _201
REMARK   83  A    between atoms: _201  and  _202
REMARK   84  A    between atoms: _207  and  _208
REMARK   85  A    between atoms: _210  and  _212
REMARK   86  A    between atoms: _212  and  _213
REMARK   87  A    between atoms: _212  and  _215
REMARK   88  A    between atoms: _215  and  _216
REMARK   89  A    between atoms: _216  and  _217
REMARK   90  A    between atoms: _219  and  _221
REMARK   91  A    between atoms: _221  and  _222
REMARK   92  A    between atoms: _221  and  _224
REMARK   93  A    between atoms: _224  and  _225
REMARK   94  A    between atoms: _225  and  _226
REMARK   95  A    between atoms: _226  and  _227
REMARK   96  A    between atoms: _227  and  _228
REMARK   97  A    between atoms: _232  and  _234
REMARK   98  A    between atoms: _234  and  _235
REMARK   99  A    between atoms: _234  and  _237
REMARK  100  A    between atoms: _237  and  _238
REMARK  101  A    between atoms: _243  and  _245
REMARK  102  A    between atoms: _245  and  _246
REMARK  103  A    between atoms: _248  and  _250
REMARK  104  A    between atoms: _250  and  _251
REMARK  105  A    between atoms: _250  and  _253
REMARK  106  A    between atoms: _253  and  _254
REMARK  107  A    between atoms: _257  and  _259
REMARK  108  A    between atoms: _259  and  _260
REMARK  109  A    between atoms: _259  and  _262
REMARK  110  A    between atoms: _262  and  _263
REMARK  111  A    between atoms: _266  and  _268
REMARK  112  A    between atoms: _268  and  _269
REMARK  113  A    between atoms: _268  and  _271
REMARK  114  A    between atoms: _271  and  _272
REMARK  115  A    between atoms: _272  and  _273
REMARK  116  A    between atoms: _273  and  _274
REMARK  117  A    between atoms: _283  and  _285
REMARK  118  A    between atoms: _285  and  _286
REMARK  119  A    between atoms: _285  and  _288
REMARK  120  A    between atoms: _288  and  _289
REMARK  121  A    between atoms: _294  and  _296
REMARK  122  A    between atoms: _296  and  _297
REMARK  123  A    between atoms: _296  and  _299
REMARK  124  A    between atoms: _299  and  _300
REMARK  125  A    between atoms: _306  and  _308
REMARK  126  A    between atoms: _308  and  _309
REMARK  127  A    between atoms: _308  and  _311
REMARK  128  A    between atoms: _311  and  _312
REMARK  129  A    between atoms: _317  and  _319
REMARK  130  A    between atoms: _319  and  _320
REMARK  131  A    between atoms: _319  and  _322
REMARK  132  A    between atoms: _322  and  _323
REMARK  133  A    between atoms: _326  and  _328
REMARK  134  A    between atoms: _328  and  _329
REMARK  135  A    between atoms: _332  and  _334
REMARK  136  A    between atoms: _334  and  _335
REMARK  137  A    between atoms: _338  and  _340
REMARK  138  A    between atoms: _340  and  _341
REMARK  139  A    between atoms: _340  and  _343
REMARK  140  A    between atoms: _343  and  _344
REMARK  141  A    between atoms: _344  and  _345
REMARK  142  A    between atoms: _345  and  _346
REMARK  143  A    between atoms: _355  and  _357
REMARK  144  A    between atoms: _357  and  _358
REMARK  145  A    between atoms: _357  and  _360
REMARK  146  A    between atoms: _360  and  _361
REMARK  147  A    between atoms: _366  and  _368
REMARK  148  A    between atoms: _368  and  _369
REMARK  149  A    between atoms: _368  and  _371
REMARK  150  A    between atoms: _373  and  _375
REMARK  151  A    between atoms: _375  and  _376
REMARK  152  A    between atoms: _375  and  _378
REMARK  153  A    between atoms: _378  and  _379
REMARK  154  A    between atoms: _379  and  _380
REMARK  155  A    between atoms: _382  and  _384
REMARK  156  A    between atoms: _384  and  _385
REMARK  157  A    between atoms: _384  and  _387
REMARK  158  A    between atoms: _387  and  _388
REMARK  159  A    between atoms: _391  and  _393
REMARK  160  A    between atoms: _393  and  _394
REMARK  161  A    between atoms: _393  and  _396
REMARK  162  A    between atoms: _396  and  _397
REMARK  163  A    between atoms: _400  and  _402
REMARK  164  A    between atoms: _402  and  _403
REMARK  165  A    between atoms: _402  and  _405
REMARK  166  A    between atoms: _405  and  _406
REMARK  167  A    between atoms: _406  and  _407
REMARK  168  A    between atoms: _407  and  _408
REMARK  169  A    between atoms: _408  and  _409
REMARK  170  A    between atoms: _413  and  _415
REMARK  171  A    between atoms: _415  and  _416
REMARK  172  A    between atoms: _415  and  _418
REMARK  173  A    between atoms: _421  and  _423
REMARK  174  A    between atoms: _423  and  _424
REMARK  175  A    between atoms: _427  and  _429
REMARK  176  A    between atoms: _429  and  _430
REMARK  177  A    between atoms: _429  and  _432
REMARK  178  A    between atoms: _432  and  _433
REMARK  179  A    between atoms: _436  and  _438
REMARK  180  A    between atoms: _438  and  _439
REMARK  181  A    between atoms: _438  and  _441
REMARK  182  A    between atoms: _441  and  _442
REMARK  183  A    between atoms: _448  and  _450
REMARK  184  A    between atoms: _450  and  _451
REMARK  185  A    between atoms: _450  and  _453
REMARK  186  A    between atoms: _453  and  _454
REMARK  187  A    between atoms: _457  and  _459
REMARK  188  A    between atoms: _459  and  _460
REMARK  189  A    between atoms: _463  and  _465
REMARK  190  A    between atoms: _465  and  _466
REMARK  191  A    between atoms: _465  and  _468
REMARK  192  A    between atoms: _468  and  _469
REMARK  193  A    between atoms: _469  and  _470
REMARK  194  A    between atoms: _470  and  _471
REMARK  195  A    between atoms: _480  and  _482
REMARK  196  A    between atoms: _482  and  _483
REMARK  197  A    between atoms: _482  and  _485
REMARK  198  A    between atoms: _485  and  _486
REMARK  199  A    between atoms: _489  and  _491
REMARK  200  A    between atoms: _491  and  _492
REMARK  201  A    between atoms: _491  and  _494
REMARK  202  A    between atoms: _494  and  _495
REMARK  203  A    between atoms: _495  and  _496
REMARK  204  A    between atoms: _498  and  _500
REMARK  205  A    between atoms: _500  and  _501
REMARK  206  A    between atoms: _500  and  _503
REMARK  207  A    between atoms: _503  and  _504
REMARK  208  A    between atoms: _509  and  _510
REMARK  209  A    between atoms: _512  and  _514
REMARK  210  A    between atoms: _514  and  _515
REMARK  211  A    between atoms: _514  and  _517
REMARK  212  A    between atoms: _517  and  _518
REMARK  213  A    between atoms: _521  and  _523
REMARK  214  A    between atoms: _523  and  _524
REMARK  215  A    between atoms: _523  and  _526
REMARK  216  A    between atoms: _526  and  _527
REMARK  217  A    between atoms: _532  and  _533
REMARK                            x       y       z     vdW  Elec       q    Type
REMARK                         _______ _______ _______ _____ _____    ______ ____
ROOT
ATOM      1  O   HOH     1      24.455  14.172  47.337  0.00  0.00    +0.000 OA
ENDROOT
TORSDOF 0
REMARK  Name = ../refined-set-2016/3zbx/3zbx_pocket.pdb
REMARK  217 active torsions:
REMARK  status: ('A' for Active; 'I' for Inactive)
REMARK    1  A    between atoms: _1  and  _3
REMARK    2  A    between atoms: _3  and  _4
REMARK    3  A    between atoms: _3  and  _6
REMARK    4  A    between atoms: _9  and  _11
REMARK    5  A    between atoms: _11  and  _12
REMARK    6  A    between atoms: _11  and  _14
REMARK    7  A    between atoms: _14  and  _15
REMARK    8  A    between atoms: _18  and  _20
REMARK    9  A    between atoms: _20  and  _21
REMARK   10  A    between atoms: _23  and  _25
REMARK   11  A    between atoms: _25  and  _26
REMARK   12  A    between atoms: _25  and  _28
REMARK   13  A    between atoms: _28  and  _29
REMARK   14  A    between atoms: _29  and  _30
REMARK   15  A    between atoms: _30  and  _31
REMARK   16  A    between atoms: _40  and  _42
REMARK   17  A    between atoms: _42  and  _43
REMARK   18  A    between atoms: _45  and  _47
REMARK   19  A    between atoms: _47  and  _48
REMARK   20  A    between atoms: _47  and  _50
REMARK   21  A    between atoms: _52  and  _54
REMARK   22  A    between atoms: _54  and  _55
REMARK   23  A    between atoms: _54  and  _57
REMARK   24  A    between atoms: _60  and  _62
REMARK   25  A    between atoms: _62  and  _63
REMARK   26  A    between atoms: _62  and  _65
REMARK   27  A    between atoms: _65  and  _66
REMARK   28  A    between atoms: _71  and  _72
REMARK   29  A    between atoms: _74  and  _76
REMARK   30  A    between atoms: _76  and  _77
REMARK   31  A    between atoms: _76  and  _79
REMARK   32  A    between atoms: _79  and  _80
REMARK   33  A    between atoms: _85  and  _87
REMARK   34  A    between atoms: _87  and  _88
REMARK   35  A    between atoms: _87  and  _90
REMARK   36  A    between atoms: _90  and  _91
REMARK   37  A    between atoms: _96  and  _98
REMARK   38  A    between atoms: _98  and  _99
REMARK   39  A    between atoms: _98  and  _101
REMARK   40  A    between atoms: _103  and  _105
REMARK   41  A    between atoms: _105  and  _106
REMARK   42  A    between atoms: _109  and  _111
REMARK   43  A    between atoms: _111  and  _112
REMARK   44  A    between atoms: _111  and  _114
REMARK   45  A    between atoms: _117  and  _119
REMARK   46  A    between atoms: _119  and  _120
REMARK   47  A    between atoms: _119  and  _122
REMARK   48  A    between atoms: _122  and  _123
REMARK   49  A    between atoms: _123  and  _124
REMARK   50  A    between atoms: _124  and  _125
REMARK   51  A    between atoms: _125  and  _126
REMARK   52  A    between atoms: _130  and  _132
REMARK   53  A    between atoms: _132  and  _133
REMARK   54  A    between atoms: _132  and  _135
REMARK   55  A    between atoms: _135  and  _136
REMARK   56  A    between atoms: _138  and  _140
REMARK   57  A    between atoms: _140  and  _141
REMARK   58  A    between atoms: _140  and  _143
REMARK   59  A    between atoms: _143  and  _144
REMARK   60  A    between atoms: _144  and  _145
REMARK   61  A    between atoms: _147  and  _149
REMARK   62  A    between atoms: _149  and  _150
REMARK   63  A    between atoms: _149  and  _152
REMARK   64  A    between atoms: _152  and  _153
REMARK   65  A    between atoms: _156  and  _158
REMARK   66  A    between atoms: _158  and  _159
REMARK   67  A    between atoms: _158  and  _161
REMARK   68  A    between atoms: _161  and  _162
REMARK   69  A    between atoms: _164  and  _166
REMARK   70  A    between atoms: _166  and  _167
REMARK   71  A    between atoms: _166  and  _169
REMARK   72  A    between atoms: _172  and  _174
REMARK   73  A    between atoms: _174  and  _175
REMARK   74  A    between atoms: _174  and  _177
REMARK   75  A    between atoms: _180  and  _182
REMARK   76  A    between atoms: _182  and  _183
REMARK   77  A    between atoms: _182  and  _185
REMARK   78  A    between atoms: _185  and  _186
REMARK   79  A    between atoms: _190  and  _191
REMARK   80  A    between atoms: _196  and  _198
REMARK   81  A    between atoms: _198  and  _199
REMARK   82  A    between atoms: _198  and  _201
REMARK   83  A    between atoms: _201  and  _202
REMARK   84  A    between atoms: _207  and  _208
REMARK   85  A    between atoms: _210  and  _212
REMARK   86  A    between atoms: _212  and  _213
REMARK   87  A    between atoms: _212  and  _215
REMARK   88  A    between atoms: _215  and  _216
REMARK   89  A    between atoms: _216  and  _217
REMARK   90  A    between atoms: _219  and  _221
REMARK   91  A    between atoms: _221  and  _222
REMARK   92  A    between atoms: _221  and  _224
REMARK   93  A    between atoms: _224  and  _225
REMARK   94  A    between atoms: _225  and  _226
REMARK   95  A    between atoms: _226  and  _227
REMARK   96  A    between atoms: _227  and  _228
REMARK   97  A    between atoms: _232  and  _234
REMARK   98  A    between atoms: _234  and  _235
REMARK   99  A    between atoms: _234  and  _237
REMARK  100  A    between atoms: _237  and  _238
REMARK  101  A    between atoms: _243  and  _245
REMARK  102  A    between atoms: _245  and  _246
REMARK  103  A    between atoms: _248  and  _250
REMARK  104  A    between atoms: _250  and  _251
REMARK  105  A    between atoms: _250  and  _253
REMARK  106  A    between atoms: _253  and  _254
REMARK  107  A    between atoms: _257  and  _259
REMARK  108  A    between atoms: _259  and  _260
REMARK  109  A    between atoms: _259  and  _262
REMARK  110  A    between atoms: _262  and  _263
REMARK  111  A    between atoms: _266  and  _268
REMARK  112  A    between atoms: _268  and  _269
REMARK  113  A    between atoms: _268  and  _271
REMARK  114  A    between atoms: _271  and  _272
REMARK  115  A    between atoms: _272  and  _273
REMARK  116  A    between atoms: _273  and  _274
REMARK  117  A    between atoms: _283  and  _285
REMARK  118  A    between atoms: _285  and  _286
REMARK  119  A    between atoms: _285  and  _288
REMARK  120  A    between atoms: _288  and  _289
REMARK  121  A    between atoms: _294  and  _296
REMARK  122  A    between atoms: _296  and  _297
REMARK  123  A    between atoms: _296  and  _299
REMARK  124  A    between atoms: _299  and  _300
REMARK  125  A    between atoms: _306  and  _308
REMARK  126  A    between atoms: _308  and  _309
REMARK  127  A    between atoms: _308  and  _311
REMARK  128  A    between atoms: _311  and  _312
REMARK  129  A    between atoms: _317  and  _319
REMARK  130  A    between atoms: _319  and  _320
REMARK  131  A    between atoms: _319  and  _322
REMARK  132  A    between atoms: _322  and  _323
REMARK  133  A    between atoms: _326  and  _328
REMARK  134  A    between atoms: _328  and  _329
REMARK  135  A    between atoms: _332  and  _334
REMARK  136  A    between atoms: _334  and  _335
REMARK  137  A    between atoms: _338  and  _340
REMARK  138  A    between atoms: _340  and  _341
REMARK  139  A    between atoms: _340  and  _343
REMARK  140  A    between atoms: _343  and  _344
REMARK  141  A    between atoms: _344  and  _345
REMARK  142  A    between atoms: _345  and  _346
REMARK  143  A    between atoms: _355  and  _357
REMARK  144  A    between atoms: _357  and  _358
REMARK  145  A    between atoms: _357  and  _360
REMARK  146  A    between atoms: _360  and  _361
REMARK  147  A    between atoms: _366  and  _368
REMARK  148  A    between atoms: _368  and  _369
REMARK  149  A    between atoms: _368  and  _371
REMARK  150  A    between atoms: _373  and  _375
REMARK  151  A    between atoms: _375  and  _376
REMARK  152  A    between atoms: _375  and  _378
REMARK  153  A    between atoms: _378  and  _379
REMARK  154  A    between atoms: _379  and  _380
REMARK  155  A    between atoms: _382  and  _384
REMARK  156  A    between atoms: _384  and  _385
REMARK  157  A    between atoms: _384  and  _387
REMARK  158  A    between atoms: _387  and  _388
REMARK  159  A    between atoms: _391  and  _393
REMARK  160  A    between atoms: _393  and  _394
REMARK  161  A    between atoms: _393  and  _396
REMARK  162  A    between atoms: _396  and  _397
REMARK  163  A    between atoms: _400  and  _402
REMARK  164  A    between atoms: _402  and  _403
REMARK  165  A    between atoms: _402  and  _405
REMARK  166  A    between atoms: _405  and  _406
REMARK  167  A    between atoms: _406  and  _407
REMARK  168  A    between atoms: _407  and  _408
REMARK  169  A    between atoms: _408  and  _409
REMARK  170  A    between atoms: _413  and  _415
REMARK  171  A    between atoms: _415  and  _416
REMARK  172  A    between atoms: _415  and  _418
REMARK  173  A    between atoms: _421  and  _423
REMARK  174  A    between atoms: _423  and  _424
REMARK  175  A    between atoms: _427  and  _429
REMARK  176  A    between atoms: _429  and  _430
REMARK  177  A    between atoms: _429  and  _432
REMARK  178  A    between atoms: _432  and  _433
REMARK  179  A    between atoms: _436  and  _438
REMARK  180  A    between atoms: _438  and  _439
REMARK  181  A    between atoms: _438  and  _441
REMARK  182  A    between atoms: _441  and  _442
REMARK  183  A    between atoms: _448  and  _450
REMARK  184  A    between atoms: _450  and  _451
REMARK  185  A    between atoms: _450  and  _453
REMARK  186  A    between atoms: _453  and  _454
REMARK  187  A    between atoms: _457  and  _459
REMARK  188  A    between atoms: _459  and  _460
REMARK  189  A    between atoms: _463  and  _465
REMARK  190  A    between atoms: _465  and  _466
REMARK  191  A    between atoms: _465  and  _468
REMARK  192  A    between atoms: _468  and  _469
REMARK  193  A    between atoms: _469  and  _470
REMARK  194  A    between atoms: _470  and  _471
REMARK  195  A    between atoms: _480  and  _482
REMARK  196  A    between atoms: _482  and  _483
REMARK  197  A    between atoms: _482  and  _485
REMARK  198  A    between atoms: _485  and  _486
REMARK  199  A    between atoms: _489  and  _491
REMARK  200  A    between atoms: _491  and  _492
REMARK  201  A    between atoms: _491  and  _494
REMARK  202  A    between atoms: _494  and  _495
REMARK  203  A    between atoms: _495  and  _496
REMARK  204  A    between atoms: _498  and  _500
REMARK  205  A    between atoms: _500  and  _501
REMARK  206  A    between atoms: _500  and  _503
REMARK  207  A    between atoms: _503  and  _504
REMARK  208  A    between atoms: _509  and  _510
REMARK  209  A    between atoms: _512  and  _514
REMARK  210  A    between atoms: _514  and  _515
REMARK  211  A    between atoms: _514  and  _517
REMARK  212  A    between atoms: _517  and  _518
REMARK  213  A    between atoms: _521  and  _523
REMARK  214  A    between atoms: _523  and  _524
REMARK  215  A    between atoms: _523  and  _526
REMARK  216  A    between atoms: _526  and  _527
REMARK  217  A    between atoms: _532  and  _533
REMARK                            x       y       z     vdW  Elec       q    Type
REMARK                         _______ _______ _______ _____ _____    ______ ____
ROOT
ATOM      1  O   HOH     1      20.976  12.000  49.187  0.00  0.00    +0.000 OA
ENDROOT
TORSDOF 0
REMARK  Name = ../refined-set-2016/3zbx/3zbx_pocket.pdb
REMARK  217 active torsions:
REMARK  status: ('A' for Active; 'I' for Inactive)
REMARK    1  A    between atoms: _1  and  _3
REMARK    2  A    between atoms: _3  and  _4
REMARK    3  A    between atoms: _3  and  _6
REMARK    4  A    between atoms: _9  and  _11
REMARK    5  A    between atoms: _11  and  _12
REMARK    6  A    between atoms: _11  and  _14
REMARK    7  A    between atoms: _14  and  _15
REMARK    8  A    between atoms: _18  and  _20
REMARK    9  A    between atoms: _20  and  _21
REMARK   10  A    between atoms: _23  and  _25
REMARK   11  A    between atoms: _25  and  _26
REMARK   12  A    between atoms: _25  and  _28
REMARK   13  A    between atoms: _28  and  _29
REMARK   14  A    between atoms: _29  and  _30
REMARK   15  A    between atoms: _30  and  _31
REMARK   16  A    between atoms: _40  and  _42
REMARK   17  A    between atoms: _42  and  _43
REMARK   18  A    between atoms: _45  and  _47
REMARK   19  A    between atoms: _47  and  _48
REMARK   20  A    between atoms: _47  and  _50
REMARK   21  A    between atoms: _52  and  _54
REMARK   22  A    between atoms: _54  and  _55
REMARK   23  A    between atoms: _54  and  _57
REMARK   24  A    between atoms: _60  and  _62
REMARK   25  A    between atoms: _62  and  _63
REMARK   26  A    between atoms: _62  and  _65
REMARK   27  A    between atoms: _65  and  _66
REMARK   28  A    between atoms: _71  and  _72
REMARK   29  A    between atoms: _74  and  _76
REMARK   30  A    between atoms: _76  and  _77
REMARK   31  A    between atoms: _76  and  _79
REMARK   32  A    between atoms: _79  and  _80
REMARK   33  A    between atoms: _85  and  _87
REMARK   34  A    between atoms: _87  and  _88
REMARK   35  A    between atoms: _87  and  _90
REMARK   36  A    between atoms: _90  and  _91
REMARK   37  A    between atoms: _96  and  _98
REMARK   38  A    between atoms: _98  and  _99
REMARK   39  A    between atoms: _98  and  _101
REMARK   40  A    between atoms: _103  and  _105
REMARK   41  A    between atoms: _105  and  _106
REMARK   42  A    between atoms: _109  and  _111
REMARK   43  A    between atoms: _111  and  _112
REMARK   44  A    between atoms: _111  and  _114
REMARK   45  A    between atoms: _117  and  _119
REMARK   46  A    between atoms: _119  and  _120
REMARK   47  A    between atoms: _119  and  _122
REMARK   48  A    between atoms: _122  and  _123
REMARK   49  A    between atoms: _123  and  _124
REMARK   50  A    between atoms: _124  and  _125
REMARK   51  A    between atoms: _125  and  _126
REMARK   52  A    between atoms: _130  and  _132
REMARK   53  A    between atoms: _132  and  _133
REMARK   54  A    between atoms: _132  and  _135
REMARK   55  A    between atoms: _135  and  _136
REMARK   56  A    between atoms: _138  and  _140
REMARK   57  A    between atoms: _140  and  _141
REMARK   58  A    between atoms: _140  and  _143
REMARK   59  A    between atoms: _143  and  _144
REMARK   60  A    between atoms: _144  and  _145
REMARK   61  A    between atoms: _147  and  _149
REMARK   62  A    between atoms: _149  and  _150
REMARK   63  A    between atoms: _149  and  _152
REMARK   64  A    between atoms: _152  and  _153
REMARK   65  A    between atoms: _156  and  _158
REMARK   66  A    between atoms: _158  and  _159
REMARK   67  A    between atoms: _158  and  _161
REMARK   68  A    between atoms: _161  and  _162
REMARK   69  A    between atoms: _164  and  _166
REMARK   70  A    between atoms: _166  and  _167
REMARK   71  A    between atoms: _166  and  _169
REMARK   72  A    between atoms: _172  and  _174
REMARK   73  A    between atoms: _174  and  _175
REMARK   74  A    between atoms: _174  and  _177
REMARK   75  A    between atoms: _180  and  _182
REMARK   76  A    between atoms: _182  and  _183
REMARK   77  A    between atoms: _182  and  _185
REMARK   78  A    between atoms: _185  and  _186
REMARK   79  A    between atoms: _190  and  _191
REMARK   80  A    between atoms: _196  and  _198
REMARK   81  A    between atoms: _198  and  _199
REMARK   82  A    between atoms: _198  and  _201
REMARK   83  A    between atoms: _201  and  _202
REMARK   84  A    between atoms: _207  and  _208
REMARK   85  A    between atoms: _210  and  _212
REMARK   86  A    between atoms: _212  and  _213
REMARK   87  A    between atoms: _212  and  _215
REMARK   88  A    between atoms: _215  and  _216
REMARK   89  A    between atoms: _216  and  _217
REMARK   90  A    between atoms: _219  and  _221
REMARK   91  A    between atoms: _221  and  _222
REMARK   92  A    between atoms: _221  and  _224
REMARK   93  A    between atoms: _224  and  _225
REMARK   94  A    between atoms: _225  and  _226
REMARK   95  A    between atoms: _226  and  _227
REMARK   96  A    between atoms: _227  and  _228
REMARK   97  A    between atoms: _232  and  _234
REMARK   98  A    between atoms: _234  and  _235
REMARK   99  A    between atoms: _234  and  _237
REMARK  100  A    between atoms: _237  and  _238
REMARK  101  A    between atoms: _243  and  _245
REMARK  102  A    between atoms: _245  and  _246
REMARK  103  A    between atoms: _248  and  _250
REMARK  104  A    between atoms: _250  and  _251
REMARK  105  A    between atoms: _250  and  _253
REMARK  106  A    between atoms: _253  and  _254
REMARK  107  A    between atoms: _257  and  _259
REMARK  108  A    between atoms: _259  and  _260
REMARK  109  A    between atoms: _259  and  _262
REMARK  110  A    between atoms: _262  and  _263
REMARK  111  A    between atoms: _266  and  _268
REMARK  112  A    between atoms: _268  and  _269
REMARK  113  A    between atoms: _268  and  _271
REMARK  114  A    between atoms: _271  and  _272
REMARK  115  A    between atoms: _272  and  _273
REMARK  116  A    between atoms: _273  and  _274
REMARK  117  A    between atoms: _283  and  _285
REMARK  118  A    between atoms: _285  and  _286
REMARK  119  A    between atoms: _285  and  _288
REMARK  120  A    between atoms: _288  and  _289
REMARK  121  A    between atoms: _294  and  _296
REMARK  122  A    between atoms: _296  and  _297
REMARK  123  A    between atoms: _296  and  _299
REMARK  124  A    between atoms: _299  and  _300
REMARK  125  A    between atoms: _306  and  _308
REMARK  126  A    between atoms: _308  and  _309
REMARK  127  A    between atoms: _308  and  _311
REMARK  128  A    between atoms: _311  and  _312
REMARK  129  A    between atoms: _317  and  _319
REMARK  130  A    between atoms: _319  and  _320
REMARK  131  A    between atoms: _319  and  _322
REMARK  132  A    between atoms: _322  and  _323
REMARK  133  A    between atoms: _326  and  _328
REMARK  134  A    between atoms: _328  and  _329
REMARK  135  A    between atoms: _332  and  _334
REMARK  136  A    between atoms: _334  and  _335
REMARK  137  A    between atoms: _338  and  _340
REMARK  138  A    between atoms: _340  and  _341
REMARK  139  A    between atoms: _340  and  _343
REMARK  140  A    between atoms: _343  and  _344
REMARK  141  A    between atoms: _344  and  _345
REMARK  142  A    between atoms: _345  and  _346
REMARK  143  A    between atoms: _355  and  _357
REMARK  144  A    between atoms: _357  and  _358
REMARK  145  A    between atoms: _357  and  _360
REMARK  146  A    between atoms: _360  and  _361
REMARK  147  A    between atoms: _366  and  _368
REMARK  148  A    between atoms: _368  and  _369
REMARK  149  A    between atoms: _368  and  _371
REMARK  150  A    between atoms: _373  and  _375
REMARK  151  A    between atoms: _375  and  _376
REMARK  152  A    between atoms: _375  and  _378
REMARK  153  A    between atoms: _378  and  _379
REMARK  154  A    between atoms: _379  and  _380
REMARK  155  A    between atoms: _382  and  _384
REMARK  156  A    between atoms: _384  and  _385
REMARK  157  A    between atoms: _384  and  _387
REMARK  158  A    between atoms: _387  and  _388
REMARK  159  A    between atoms: _391  and  _393
REMARK  160  A    between atoms: _393  and  _394
REMARK  161  A    between atoms: _393  and  _396
REMARK  162  A    between atoms: _396  and  _397
REMARK  163  A    between atoms: _400  and  _402
REMARK  164  A    between atoms: _402  and  _403
REMARK  165  A    between atoms: _402  and  _405
REMARK  166  A    between atoms: _405  and  _406
REMARK  167  A    between atoms: _406  and  _407
REMARK  168  A    between atoms: _407  and  _408
REMARK  169  A    between atoms: _408  and  _409
REMARK  170  A    between atoms: _413  and  _415
REMARK  171  A    between atoms: _415  and  _416
REMARK  172  A    between atoms: _415  and  _418
REMARK  173  A    between atoms: _421  and  _423
REMARK  174  A    between atoms: _423  and  _424
REMARK  175  A    between atoms: _427  and  _429
REMARK  176  A    between atoms: _429  and  _430
REMARK  177  A    between atoms: _429  and  _432
REMARK  178  A    between atoms: _432  and  _433
REMARK  179  A    between atoms: _436  and  _438
REMARK  180  A    between atoms: _438  and  _439
REMARK  181  A    between atoms: _438  and  _441
REMARK  182  A    between atoms: _441  and  _442
REMARK  183  A    between atoms: _448  and  _450
REMARK  184  A    between atoms: _450  and  _451
REMARK  185  A    between atoms: _450  and  _453
REMARK  186  A    between atoms: _453  and  _454
REMARK  187  A    between atoms: _457  and  _459
REMARK  188  A    between atoms: _459  and  _460
REMARK  189  A    between atoms: _463  and  _465
REMARK  190  A    between atoms: _465  and  _466
REMARK  191  A    between atoms: _465  and  _468
REMARK  192  A    between atoms: _468  and  _469
REMARK  193  A    between atoms: _469  and  _470
REMARK  194  A    between atoms: _470  and  _471
REMARK  195  A    between atoms: _480  and  _482
REMARK  196  A    between atoms: _482  and  _483
REMARK  197  A    between atoms: _482  and  _485
REMARK  198  A    between atoms: _485  and  _486
REMARK  199  A    between atoms: _489  and  _491
REMARK  200  A    between atoms: _491  and  _492
REMARK  201  A    between atoms: _491  and  _494
REMARK  202  A    between atoms: _494  and  _495
REMARK  203  A    between atoms: _495  and  _496
REMARK  204  A    between atoms: _498  and  _500
REMARK  205  A    between atoms: _500  and  _501
REMARK  206  A    between atoms: _500  and  _503
REMARK  207  A    between atoms: _503  and  _504
REMARK  208  A    between atoms: _509  and  _510
REMARK  209  A    between atoms: _512  and  _514
REMARK  210  A    between atoms: _514  and  _515
REMARK  211  A    between atoms: _514  and  _517
REMARK  212  A    between atoms: _517  and  _518
REMARK  213  A    between atoms: _521  and  _523
REMARK  214  A    between atoms: _523  and  _524
REMARK  215  A    between atoms: _523  and  _526
REMARK  216  A    between atoms: _526  and  _527
REMARK  217  A    between atoms: _532  and  _533
REMARK                            x       y       z     vdW  Elec       q    Type
REMARK                         _______ _______ _______ _____ _____    ______ ____
ROOT
ATOM      1  O   HOH     1      15.168  15.483  53.329  0.00  0.00    +0.000 OA
ENDROOT
TORSDOF 0
REMARK  Name = ../refined-set-2016/3zbx/3zbx_pocket.pdb
REMARK  217 active torsions:
REMARK  status: ('A' for Active; 'I' for Inactive)
REMARK    1  A    between atoms: _1  and  _3
REMARK    2  A    between atoms: _3  and  _4
REMARK    3  A    between atoms: _3  and  _6
REMARK    4  A    between atoms: _9  and  _11
REMARK    5  A    between atoms: _11  and  _12
REMARK    6  A    between atoms: _11  and  _14
REMARK    7  A    between atoms: _14  and  _15
REMARK    8  A    between atoms: _18  and  _20
REMARK    9  A    between atoms: _20  and  _21
REMARK   10  A    between atoms: _23  and  _25
REMARK   11  A    between atoms: _25  and  _26
REMARK   12  A    between atoms: _25  and  _28
REMARK   13  A    between atoms: _28  and  _29
REMARK   14  A    between atoms: _29  and  _30
REMARK   15  A    between atoms: _30  and  _31
REMARK   16  A    between atoms: _40  and  _42
REMARK   17  A    between atoms: _42  and  _43
REMARK   18  A    between atoms: _45  and  _47
REMARK   19  A    between atoms: _47  and  _48
REMARK   20  A    between atoms: _47  and  _50
REMARK   21  A    between atoms: _52  and  _54
REMARK   22  A    between atoms: _54  and  _55
REMARK   23  A    between atoms: _54  and  _57
REMARK   24  A    between atoms: _60  and  _62
REMARK   25  A    between atoms: _62  and  _63
REMARK   26  A    between atoms: _62  and  _65
REMARK   27  A    between atoms: _65  and  _66
REMARK   28  A    between atoms: _71  and  _72
REMARK   29  A    between atoms: _74  and  _76
REMARK   30  A    between atoms: _76  and  _77
REMARK   31  A    between atoms: _76  and  _79
REMARK   32  A    between atoms: _79  and  _80
REMARK   33  A    between atoms: _85  and  _87
REMARK   34  A    between atoms: _87  and  _88
REMARK   35  A    between atoms: _87  and  _90
REMARK   36  A    between atoms: _90  and  _91
REMARK   37  A    between atoms: _96  and  _98
REMARK   38  A    between atoms: _98  and  _99
REMARK   39  A    between atoms: _98  and  _101
REMARK   40  A    between atoms: _103  and  _105
REMARK   41  A    between atoms: _105  and  _106
REMARK   42  A    between atoms: _109  and  _111
REMARK   43  A    between atoms: _111  and  _112
REMARK   44  A    between atoms: _111  and  _114
REMARK   45  A    between atoms: _117  and  _119
REMARK   46  A    between atoms: _119  and  _120
REMARK   47  A    between atoms: _119  and  _122
REMARK   48  A    between atoms: _122  and  _123
REMARK   49  A    between atoms: _123  and  _124
REMARK   50  A    between atoms: _124  and  _125
REMARK   51  A    between atoms: _125  and  _126
REMARK   52  A    between atoms: _130  and  _132
REMARK   53  A    between atoms: _132  and  _133
REMARK   54  A    between atoms: _132  and  _135
REMARK   55  A    between atoms: _135  and  _136
REMARK   56  A    between atoms: _138  and  _140
REMARK   57  A    between atoms: _140  and  _141
REMARK   58  A    between atoms: _140  and  _143
REMARK   59  A    between atoms: _143  and  _144
REMARK   60  A    between atoms: _144  and  _145
REMARK   61  A    between atoms: _147  and  _149
REMARK   62  A    between atoms: _149  and  _150
REMARK   63  A    between atoms: _149  and  _152
REMARK   64  A    between atoms: _152  and  _153
REMARK   65  A    between atoms: _156  and  _158
REMARK   66  A    between atoms: _158  and  _159
REMARK   67  A    between atoms: _158  and  _161
REMARK   68  A    between atoms: _161  and  _162
REMARK   69  A    between atoms: _164  and  _166
REMARK   70  A    between atoms: _166  and  _167
REMARK   71  A    between atoms: _166  and  _169
REMARK   72  A    between atoms: _172  and  _174
REMARK   73  A    between atoms: _174  and  _175
REMARK   74  A    between atoms: _174  and  _177
REMARK   75  A    between atoms: _180  and  _182
REMARK   76  A    between atoms: _182  and  _183
REMARK   77  A    between atoms: _182  and  _185
REMARK   78  A    between atoms: _185  and  _186
REMARK   79  A    between atoms: _190  and  _191
REMARK   80  A    between atoms: _196  and  _198
REMARK   81  A    between atoms: _198  and  _199
REMARK   82  A    between atoms: _198  and  _201
REMARK   83  A    between atoms: _201  and  _202
REMARK   84  A    between atoms: _207  and  _208
REMARK   85  A    between atoms: _210  and  _212
REMARK   86  A    between atoms: _212  and  _213
REMARK   87  A    between atoms: _212  and  _215
REMARK   88  A    between atoms: _215  and  _216
REMARK   89  A    between atoms: _216  and  _217
REMARK   90  A    between atoms: _219  and  _221
REMARK   91  A    between atoms: _221  and  _222
REMARK   92  A    between atoms: _221  and  _224
REMARK   93  A    between atoms: _224  and  _225
REMARK   94  A    between atoms: _225  and  _226
REMARK   95  A    between atoms: _226  and  _227
REMARK   96  A    between atoms: _227  and  _228
REMARK   97  A    between atoms: _232  and  _234
REMARK   98  A    between atoms: _234  and  _235
REMARK   99  A    between atoms: _234  and  _237
REMARK  100  A    between atoms: _237  and  _238
REMARK  101  A    between atoms: _243  and  _245
REMARK  102  A    between atoms: _245  and  _246
REMARK  103  A    between atoms: _248  and  _250
REMARK  104  A    between atoms: _250  and  _251
REMARK  105  A    between atoms: _250  and  _253
REMARK  106  A    between atoms: _253  and  _254
REMARK  107  A    between atoms: _257  and  _259
REMARK  108  A    between atoms: _259  and  _260
REMARK  109  A    between atoms: _259  and  _262
REMARK  110  A    between atoms: _262  and  _263
REMARK  111  A    between atoms: _266  and  _268
REMARK  112  A    between atoms: _268  and  _269
REMARK  113  A    between atoms: _268  and  _271
REMARK  114  A    between atoms: _271  and  _272
REMARK  115  A    between atoms: _272  and  _273
REMARK  116  A    between atoms: _273  and  _274
REMARK  117  A    between atoms: _283  and  _285
REMARK  118  A    between atoms: _285  and  _286
REMARK  119  A    between atoms: _285  and  _288
REMARK  120  A    between atoms: _288  and  _289
REMARK  121  A    between atoms: _294  and  _296
REMARK  122  A    between atoms: _296  and  _297
REMARK  123  A    between atoms: _296  and  _299
REMARK  124  A    between atoms: _299  and  _300
REMARK  125  A    between atoms: _306  and  _308
REMARK  126  A    between atoms: _308  and  _309
REMARK  127  A    between atoms: _308  and  _311
REMARK  128  A    between atoms: _311  and  _312
REMARK  129  A    between atoms: _317  and  _319
REMARK  130  A    between atoms: _319  and  _320
REMARK  131  A    between atoms: _319  and  _322
REMARK  132  A    between atoms: _322  and  _323
REMARK  133  A    between atoms: _326  and  _328
REMARK  134  A    between atoms: _328  and  _329
REMARK  135  A    between atoms: _332  and  _334
REMARK  136  A    between atoms: _334  and  _335
REMARK  137  A    between atoms: _338  and  _340
REMARK  138  A    between atoms: _340  and  _341
REMARK  139  A    between atoms: _340  and  _343
REMARK  140  A    between atoms: _343  and  _344
REMARK  141  A    between atoms: _344  and  _345
REMARK  142  A    between atoms: _345  and  _346
REMARK  143  A    between atoms: _355  and  _357
REMARK  144  A    between atoms: _357  and  _358
REMARK  145  A    between atoms: _357  and  _360
REMARK  146  A    between atoms: _360  and  _361
REMARK  147  A    between atoms: _366  and  _368
REMARK  148  A    between atoms: _368  and  _369
REMARK  149  A    between atoms: _368  and  _371
REMARK  150  A    between atoms: _373  and  _375
REMARK  151  A    between atoms: _375  and  _376
REMARK  152  A    between atoms: _375  and  _378
REMARK  153  A    between atoms: _378  and  _379
REMARK  154  A    between atoms: _379  and  _380
REMARK  155  A    between atoms: _382  and  _384
REMARK  156  A    between atoms: _384  and  _385
REMARK  157  A    between atoms: _384  and  _387
REMARK  158  A    between atoms: _387  and  _388
REMARK  159  A    between atoms: _391  and  _393
REMARK  160  A    between atoms: _393  and  _394
REMARK  161  A    between atoms: _393  and  _396
REMARK  162  A    between atoms: _396  and  _397
REMARK  163  A    between atoms: _400  and  _402
REMARK  164  A    between atoms: _402  and  _403
REMARK  165  A    between atoms: _402  and  _405
REMARK  166  A    between atoms: _405  and  _406
REMARK  167  A    between atoms: _406  and  _407
REMARK  168  A    between atoms: _407  and  _408
REMARK  169  A    between atoms: _408  and  _409
REMARK  170  A    between atoms: _413  and  _415
REMARK  171  A    between atoms: _415  and  _416
REMARK  172  A    between atoms: _415  and  _418
REMARK  173  A    between atoms: _421  and  _423
REMARK  174  A    between atoms: _423  and  _424
REMARK  175  A    between atoms: _427  and  _429
REMARK  176  A    between atoms: _429  and  _430
REMARK  177  A    between atoms: _429  and  _432
REMARK  178  A    between atoms: _432  and  _433
REMARK  179  A    between atoms: _436  and  _438
REMARK  180  A    between atoms: _438  and  _439
REMARK  181  A    between atoms: _438  and  _441
REMARK  182  A    between atoms: _441  and  _442
REMARK  183  A    between atoms: _448  and  _450
REMARK  184  A    between atoms: _450  and  _451
REMARK  185  A    between atoms: _450  and  _453
REMARK  186  A    between atoms: _453  and  _454
REMARK  187  A    between atoms: _457  and  _459
REMARK  188  A    between atoms: _459  and  _460
REMARK  189  A    between atoms: _463  and  _465
REMARK  190  A    between atoms: _465  and  _466
REMARK  191  A    between atoms: _465  and  _468
REMARK  192  A    between atoms: _468  and  _469
REMARK  193  A    between atoms: _469  and  _470
REMARK  194  A    between atoms: _470  and  _471
REMARK  195  A    between atoms: _480  and  _482
REMARK  196  A    between atoms: _482  and  _483
REMARK  197  A    between atoms: _482  and  _485
REMARK  198  A    between atoms: _485  and  _486
REMARK  199  A    between atoms: _489  and  _491
REMARK  200  A    between atoms: _491  and  _492
REMARK  201  A    between atoms: _491  and  _494
REMARK  202  A    between atoms: _494  and  _495
REMARK  203  A    between atoms: _495  and  _496
REMARK  204  A    between atoms: _498  and  _500
REMARK  205  A    between atoms: _500  and  _501
REMARK  206  A    between atoms: _500  and  _503
REMARK  207  A    between atoms: _503  and  _504
REMARK  208  A    between atoms: _509  and  _510
REMARK  209  A    between atoms: _512  and  _514
REMARK  210  A    between atoms: _514  and  _515
REMARK  211  A    between atoms: _514  and  _517
REMARK  212  A    between atoms: _517  and  _518
REMARK  213  A    between atoms: _521  and  _523
REMARK  214  A    between atoms: _523  and  _524
REMARK  215  A    between atoms: _523  and  _526
REMARK  216  A    between atoms: _526  and  _527
REMARK  217  A    between atoms: _532  and  _533
REMARK                            x       y       z     vdW  Elec       q    Type
REMARK                         _______ _______ _______ _____ _____    ______ ____
ROOT
ATOM      1  O   HOH     1      23.009  10.729  46.198  0.00  0.00    +0.000 OA
ENDROOT
TORSDOF 0
REMARK  Name = ../refined-set-2016/3zbx/3zbx_pocket.pdb
REMARK  217 active torsions:
REMARK  status: ('A' for Active; 'I' for Inactive)
REMARK    1  A    between atoms: _1  and  _3
REMARK    2  A    between atoms: _3  and  _4
REMARK    3  A    between atoms: _3  and  _6
REMARK    4  A    between atoms: _9  and  _11
REMARK    5  A    between atoms: _11  and  _12
REMARK    6  A    between atoms: _11  and  _14
REMARK    7  A    between atoms: _14  and  _15
REMARK    8  A    between atoms: _18  and  _20
REMARK    9  A    between atoms: _20  and  _21
REMARK   10  A    between atoms: _23  and  _25
REMARK   11  A    between atoms: _25  and  _26
REMARK   12  A    between atoms: _25  and  _28
REMARK   13  A    between atoms: _28  and  _29
REMARK   14  A    between atoms: _29  and  _30
REMARK   15  A    between atoms: _30  and  _31
REMARK   16  A    between atoms: _40  and  _42
REMARK   17  A    between atoms: _42  and  _43
REMARK   18  A    between atoms: _45  and  _47
REMARK   19  A    between atoms: _47  and  _48
REMARK   20  A    between atoms: _47  and  _50
REMARK   21  A    between atoms: _52  and  _54
REMARK   22  A    between atoms: _54  and  _55
REMARK   23  A    between atoms: _54  and  _57
REMARK   24  A    between atoms: _60  and  _62
REMARK   25  A    between atoms: _62  and  _63
REMARK   26  A    between atoms: _62  and  _65
REMARK   27  A    between atoms: _65  and  _66
REMARK   28  A    between atoms: _71  and  _72
REMARK   29  A    between atoms: _74  and  _76
REMARK   30  A    between atoms: _76  and  _77
REMARK   31  A    between atoms: _76  and  _79
REMARK   32  A    between atoms: _79  and  _80
REMARK   33  A    between atoms: _85  and  _87
REMARK   34  A    between atoms: _87  and  _88
REMARK   35  A    between atoms: _87  and  _90
REMARK   36  A    between atoms: _90  and  _91
REMARK   37  A    between atoms: _96  and  _98
REMARK   38  A    between atoms: _98  and  _99
REMARK   39  A    between atoms: _98  and  _101
REMARK   40  A    between atoms: _103  and  _105
REMARK   41  A    between atoms: _105  and  _106
REMARK   42  A    between atoms: _109  and  _111
REMARK   43  A    between atoms: _111  and  _112
REMARK   44  A    between atoms: _111  and  _114
REMARK   45  A    between atoms: _117  and  _119
REMARK   46  A    between atoms: _119  and  _120
REMARK   47  A    between atoms: _119  and  _122
REMARK   48  A    between atoms: _122  and  _123
REMARK   49  A    between atoms: _123  and  _124
REMARK   50  A    between atoms: _124  and  _125
REMARK   51  A    between atoms: _125  and  _126
REMARK   52  A    between atoms: _130  and  _132
REMARK   53  A    between atoms: _132  and  _133
REMARK   54  A    between atoms: _132  and  _135
REMARK   55  A    between atoms: _135  and  _136
REMARK   56  A    between atoms: _138  and  _140
REMARK   57  A    between atoms: _140  and  _141
REMARK   58  A    between atoms: _140  and  _143
REMARK   59  A    between atoms: _143  and  _144
REMARK   60  A    between atoms: _144  and  _145
REMARK   61  A    between atoms: _147  and  _149
REMARK   62  A    between atoms: _149  and  _150
REMARK   63  A    between atoms: _149  and  _152
REMARK   64  A    between atoms: _152  and  _153
REMARK   65  A    between atoms: _156  and  _158
REMARK   66  A    between atoms: _158  and  _159
REMARK   67  A    between atoms: _158  and  _161
REMARK   68  A    between atoms: _161  and  _162
REMARK   69  A    between atoms: _164  and  _166
REMARK   70  A    between atoms: _166  and  _167
REMARK   71  A    between atoms: _166  and  _169
REMARK   72  A    between atoms: _172  and  _174
REMARK   73  A    between atoms: _174  and  _175
REMARK   74  A    between atoms: _174  and  _177
REMARK   75  A    between atoms: _180  and  _182
REMARK   76  A    between atoms: _182  and  _183
REMARK   77  A    between atoms: _182  and  _185
REMARK   78  A    between atoms: _185  and  _186
REMARK   79  A    between atoms: _190  and  _191
REMARK   80  A    between atoms: _196  and  _198
REMARK   81  A    between atoms: _198  and  _199
REMARK   82  A    between atoms: _198  and  _201
REMARK   83  A    between atoms: _201  and  _202
REMARK   84  A    between atoms: _207  and  _208
REMARK   85  A    between atoms: _210  and  _212
REMARK   86  A    between atoms: _212  and  _213
REMARK   87  A    between atoms: _212  and  _215
REMARK   88  A    between atoms: _215  and  _216
REMARK   89  A    between atoms: _216  and  _217
REMARK   90  A    between atoms: _219  and  _221
REMARK   91  A    between atoms: _221  and  _222
REMARK   92  A    between atoms: _221  and  _224
REMARK   93  A    between atoms: _224  and  _225
REMARK   94  A    between atoms: _225  and  _226
REMARK   95  A    between atoms: _226  and  _227
REMARK   96  A    between atoms: _227  and  _228
REMARK   97  A    between atoms: _232  and  _234
REMARK   98  A    between atoms: _234  and  _235
REMARK   99  A    between atoms: _234  and  _237
REMARK  100  A    between atoms: _237  and  _238
REMARK  101  A    between atoms: _243  and  _245
REMARK  102  A    between atoms: _245  and  _246
REMARK  103  A    between atoms: _248  and  _250
REMARK  104  A    between atoms: _250  and  _251
REMARK  105  A    between atoms: _250  and  _253
REMARK  106  A    between atoms: _253  and  _254
REMARK  107  A    between atoms: _257  and  _259
REMARK  108  A    between atoms: _259  and  _260
REMARK  109  A    between atoms: _259  and  _262
REMARK  110  A    between atoms: _262  and  _263
REMARK  111  A    between atoms: _266  and  _268
REMARK  112  A    between atoms: _268  and  _269
REMARK  113  A    between atoms: _268  and  _271
REMARK  114  A    between atoms: _271  and  _272
REMARK  115  A    between atoms: _272  and  _273
REMARK  116  A    between atoms: _273  and  _274
REMARK  117  A    between atoms: _283  and  _285
REMARK  118  A    between atoms: _285  and  _286
REMARK  119  A    between atoms: _285  and  _288
REMARK  120  A    between atoms: _288  and  _289
REMARK  121  A    between atoms: _294  and  _296
REMARK  122  A    between atoms: _296  and  _297
REMARK  123  A    between atoms: _296  and  _299
REMARK  124  A    between atoms: _299  and  _300
REMARK  125  A    between atoms: _306  and  _308
REMARK  126  A    between atoms: _308  and  _309
REMARK  127  A    between atoms: _308  and  _311
REMARK  128  A    between atoms: _311  and  _312
REMARK  129  A    between atoms: _317  and  _319
REMARK  130  A    between atoms: _319  and  _320
REMARK  131  A    between atoms: _319  and  _322
REMARK  132  A    between atoms: _322  and  _323
REMARK  133  A    between atoms: _326  and  _328
REMARK  134  A    between atoms: _328  and  _329
REMARK  135  A    between atoms: _332  and  _334
REMARK  136  A    between atoms: _334  and  _335
REMARK  137  A    between atoms: _338  and  _340
REMARK  138  A    between atoms: _340  and  _341
REMARK  139  A    between atoms: _340  and  _343
REMARK  140  A    between atoms: _343  and  _344
REMARK  141  A    between atoms: _344  and  _345
REMARK  142  A    between atoms: _345  and  _346
REMARK  143  A    between atoms: _355  and  _357
REMARK  144  A    between atoms: _357  and  _358
REMARK  145  A    between atoms: _357  and  _360
REMARK  146  A    between atoms: _360  and  _361
REMARK  147  A    between atoms: _366  and  _368
REMARK  148  A    between atoms: _368  and  _369
REMARK  149  A    between atoms: _368  and  _371
REMARK  150  A    between atoms: _373  and  _375
REMARK  151  A    between atoms: _375  and  _376
REMARK  152  A    between atoms: _375  and  _378
REMARK  153  A    between atoms: _378  and  _379
REMARK  154  A    between atoms: _379  and  _380
REMARK  155  A    between atoms: _382  and  _384
REMARK  156  A    between atoms: _384  and  _385
REMARK  157  A    between atoms: _384  and  _387
REMARK  158  A    between atoms: _387  and  _388
REMARK  159  A    between atoms: _391  and  _393
REMARK  160  A    between atoms: _393  and  _394
REMARK  161  A    between atoms: _393  and  _396
REMARK  162  A    between atoms: _396  and  _397
REMARK  163  A    between atoms: _400  and  _402
REMARK  164  A    between atoms: _402  and  _403
REMARK  165  A    between atoms: _402  and  _405
REMARK  166  A    between atoms: _405  and  _406
REMARK  167  A    between atoms: _406  and  _407
REMARK  168  A    between atoms: _407  and  _408
REMARK  169  A    between atoms: _408  and  _409
REMARK  170  A    between atoms: _413  and  _415
REMARK  171  A    between atoms: _415  and  _416
REMARK  172  A    between atoms: _415  and  _418
REMARK  173  A    between atoms: _421  and  _423
REMARK  174  A    between atoms: _423  and  _424
REMARK  175  A    between atoms: _427  and  _429
REMARK  176  A    between atoms: _429  and  _430
REMARK  177  A    between atoms: _429  and  _432
REMARK  178  A    between atoms: _432  and  _433
REMARK  179  A    between atoms: _436  and  _438
REMARK  180  A    between atoms: _438  and  _439
REMARK  181  A    between atoms: _438  and  _441
REMARK  182  A    between atoms: _441  and  _442
REMARK  183  A    between atoms: _448  and  _450
REMARK  184  A    between atoms: _450  and  _451
REMARK  185  A    between atoms: _450  and  _453
REMARK  186  A    between atoms: _453  and  _454
REMARK  187  A    between atoms: _457  and  _459
REMARK  188  A    between atoms: _459  and  _460
REMARK  189  A    between atoms: _463  and  _465
REMARK  190  A    between atoms: _465  and  _466
REMARK  191  A    between atoms: _465  and  _468
REMARK  192  A    between atoms: _468  and  _469
REMARK  193  A    between atoms: _469  and  _470
REMARK  194  A    between atoms: _470  and  _471
REMARK  195  A    between atoms: _480  and  _482
REMARK  196  A    between atoms: _482  and  _483
REMARK  197  A    between atoms: _482  and  _485
REMARK  198  A    between atoms: _485  and  _486
REMARK  199  A    between atoms: _489  and  _491
REMARK  200  A    between atoms: _491  and  _492
REMARK  201  A    between atoms: _491  and  _494
REMARK  202  A    between atoms: _494  and  _495
REMARK  203  A    between atoms: _495  and  _496
REMARK  204  A    between atoms: _498  and  _500
REMARK  205  A    between atoms: _500  and  _501
REMARK  206  A    between atoms: _500  and  _503
REMARK  207  A    between atoms: _503  and  _504
REMARK  208  A    between atoms: _509  and  _510
REMARK  209  A    between atoms: _512  and  _514
REMARK  210  A    between atoms: _514  and  _515
REMARK  211  A    between atoms: _514  and  _517
REMARK  212  A    between atoms: _517  and  _518
REMARK  213  A    between atoms: _521  and  _523
REMARK  214  A    between atoms: _523  and  _524
REMARK  215  A    between atoms: _523  and  _526
REMARK  216  A    between atoms: _526  and  _527
REMARK  217  A    between atoms: _532  and  _533
REMARK                            x       y       z     vdW  Elec       q    Type
REMARK                         _______ _______ _______ _____ _____    ______ ____
ROOT
ATOM      1  O   HOH     1      19.262   8.318  49.136  0.00  0.00    +0.000 OA
ENDROOT
TORSDOF 0
REMARK  Name = ../refined-set-2016/3zbx/3zbx_pocket.pdb
REMARK  217 active torsions:
REMARK  status: ('A' for Active; 'I' for Inactive)
REMARK    1  A    between atoms: _1  and  _3
REMARK    2  A    between atoms: _3  and  _4
REMARK    3  A    between atoms: _3  and  _6
REMARK    4  A    between atoms: _9  and  _11
REMARK    5  A    between atoms: _11  and  _12
REMARK    6  A    between atoms: _11  and  _14
REMARK    7  A    between atoms: _14  and  _15
REMARK    8  A    between atoms: _18  and  _20
REMARK    9  A    between atoms: _20  and  _21
REMARK   10  A    between atoms: _23  and  _25
REMARK   11  A    between atoms: _25  and  _26
REMARK   12  A    between atoms: _25  and  _28
REMARK   13  A    between atoms: _28  and  _29
REMARK   14  A    between atoms: _29  and  _30
REMARK   15  A    between atoms: _30  and  _31
REMARK   16  A    between atoms: _40  and  _42
REMARK   17  A    between atoms: _42  and  _43
REMARK   18  A    between atoms: _45  and  _47
REMARK   19  A    between atoms: _47  and  _48
REMARK   20  A    between atoms: _47  and  _50
REMARK   21  A    between atoms: _52  and  _54
REMARK   22  A    between atoms: _54  and  _55
REMARK   23  A    between atoms: _54  and  _57
REMARK   24  A    between atoms: _60  and  _62
REMARK   25  A    between atoms: _62  and  _63
REMARK   26  A    between atoms: _62  and  _65
REMARK   27  A    between atoms: _65  and  _66
REMARK   28  A    between atoms: _71  and  _72
REMARK   29  A    between atoms: _74  and  _76
REMARK   30  A    between atoms: _76  and  _77
REMARK   31  A    between atoms: _76  and  _79
REMARK   32  A    between atoms: _79  and  _80
REMARK   33  A    between atoms: _85  and  _87
REMARK   34  A    between atoms: _87  and  _88
REMARK   35  A    between atoms: _87  and  _90
REMARK   36  A    between atoms: _90  and  _91
REMARK   37  A    between atoms: _96  and  _98
REMARK   38  A    between atoms: _98  and  _99
REMARK   39  A    between atoms: _98  and  _101
REMARK   40  A    between atoms: _103  and  _105
REMARK   41  A    between atoms: _105  and  _106
REMARK   42  A    between atoms: _109  and  _111
REMARK   43  A    between atoms: _111  and  _112
REMARK   44  A    between atoms: _111  and  _114
REMARK   45  A    between atoms: _117  and  _119
REMARK   46  A    between atoms: _119  and  _120
REMARK   47  A    between atoms: _119  and  _122
REMARK   48  A    between atoms: _122  and  _123
REMARK   49  A    between atoms: _123  and  _124
REMARK   50  A    between atoms: _124  and  _125
REMARK   51  A    between atoms: _125  and  _126
REMARK   52  A    between atoms: _130  and  _132
REMARK   53  A    between atoms: _132  and  _133
REMARK   54  A    between atoms: _132  and  _135
REMARK   55  A    between atoms: _135  and  _136
REMARK   56  A    between atoms: _138  and  _140
REMARK   57  A    between atoms: _140  and  _141
REMARK   58  A    between atoms: _140  and  _143
REMARK   59  A    between atoms: _143  and  _144
REMARK   60  A    between atoms: _144  and  _145
REMARK   61  A    between atoms: _147  and  _149
REMARK   62  A    between atoms: _149  and  _150
REMARK   63  A    between atoms: _149  and  _152
REMARK   64  A    between atoms: _152  and  _153
REMARK   65  A    between atoms: _156  and  _158
REMARK   66  A    between atoms: _158  and  _159
REMARK   67  A    between atoms: _158  and  _161
REMARK   68  A    between atoms: _161  and  _162
REMARK   69  A    between atoms: _164  and  _166
REMARK   70  A    between atoms: _166  and  _167
REMARK   71  A    between atoms: _166  and  _169
REMARK   72  A    between atoms: _172  and  _174
REMARK   73  A    between atoms: _174  and  _175
REMARK   74  A    between atoms: _174  and  _177
REMARK   75  A    between atoms: _180  and  _182
REMARK   76  A    between atoms: _182  and  _183
REMARK   77  A    between atoms: _182  and  _185
REMARK   78  A    between atoms: _185  and  _186
REMARK   79  A    between atoms: _190  and  _191
REMARK   80  A    between atoms: _196  and  _198
REMARK   81  A    between atoms: _198  and  _199
REMARK   82  A    between atoms: _198  and  _201
REMARK   83  A    between atoms: _201  and  _202
REMARK   84  A    between atoms: _207  and  _208
REMARK   85  A    between atoms: _210  and  _212
REMARK   86  A    between atoms: _212  and  _213
REMARK   87  A    between atoms: _212  and  _215
REMARK   88  A    between atoms: _215  and  _216
REMARK   89  A    between atoms: _216  and  _217
REMARK   90  A    between atoms: _219  and  _221
REMARK   91  A    between atoms: _221  and  _222
REMARK   92  A    between atoms: _221  and  _224
REMARK   93  A    between atoms: _224  and  _225
REMARK   94  A    between atoms: _225  and  _226
REMARK   95  A    between atoms: _226  and  _227
REMARK   96  A    between atoms: _227  and  _228
REMARK   97  A    between atoms: _232  and  _234
REMARK   98  A    between atoms: _234  and  _235
REMARK   99  A    between atoms: _234  and  _237
REMARK  100  A    between atoms: _237  and  _238
REMARK  101  A    between atoms: _243  and  _245
REMARK  102  A    between atoms: _245  and  _246
REMARK  103  A    between atoms: _248  and  _250
REMARK  104  A    between atoms: _250  and  _251
REMARK  105  A    between atoms: _250  and  _253
REMARK  106  A    between atoms: _253  and  _254
REMARK  107  A    between atoms: _257  and  _259
REMARK  108  A    between atoms: _259  and  _260
REMARK  109  A    between atoms: _259  and  _262
REMARK  110  A    between atoms: _262  and  _263
REMARK  111  A    between atoms: _266  and  _268
REMARK  112  A    between atoms: _268  and  _269
REMARK  113  A    between atoms: _268  and  _271
REMARK  114  A    between atoms: _271  and  _272
REMARK  115  A    between atoms: _272  and  _273
REMARK  116  A    between atoms: _273  and  _274
REMARK  117  A    between atoms: _283  and  _285
REMARK  118  A    between atoms: _285  and  _286
REMARK  119  A    between atoms: _285  and  _288
REMARK  120  A    between atoms: _288  and  _289
REMARK  121  A    between atoms: _294  and  _296
REMARK  122  A    between atoms: _296  and  _297
REMARK  123  A    between atoms: _296  and  _299
REMARK  124  A    between atoms: _299  and  _300
REMARK  125  A    between atoms: _306  and  _308
REMARK  126  A    between atoms: _308  and  _309
REMARK  127  A    between atoms: _308  and  _311
REMARK  128  A    between atoms: _311  and  _312
REMARK  129  A    between atoms: _317  and  _319
REMARK  130  A    between atoms: _319  and  _320
REMARK  131  A    between atoms: _319  and  _322
REMARK  132  A    between atoms: _322  and  _323
REMARK  133  A    between atoms: _326  and  _328
REMARK  134  A    between atoms: _328  and  _329
REMARK  135  A    between atoms: _332  and  _334
REMARK  136  A    between atoms: _334  and  _335
REMARK  137  A    between atoms: _338  and  _340
REMARK  138  A    between atoms: _340  and  _341
REMARK  139  A    between atoms: _340  and  _343
REMARK  140  A    between atoms: _343  and  _344
REMARK  141  A    between atoms: _344  and  _345
REMARK  142  A    between atoms: _345  and  _346
REMARK  143  A    between atoms: _355  and  _357
REMARK  144  A    between atoms: _357  and  _358
REMARK  145  A    between atoms: _357  and  _360
REMARK  146  A    between atoms: _360  and  _361
REMARK  147  A    between atoms: _366  and  _368
REMARK  148  A    between atoms: _368  and  _369
REMARK  149  A    between atoms: _368  and  _371
REMARK  150  A    between atoms: _373  and  _375
REMARK  151  A    between atoms: _375  and  _376
REMARK  152  A    between atoms: _375  and  _378
REMARK  153  A    between atoms: _378  and  _379
REMARK  154  A    between atoms: _379  and  _380
REMARK  155  A    between atoms: _382  and  _384
REMARK  156  A    between atoms: _384  and  _385
REMARK  157  A    between atoms: _384  and  _387
REMARK  158  A    between atoms: _387  and  _388
REMARK  159  A    between atoms: _391  and  _393
REMARK  160  A    between atoms: _393  and  _394
REMARK  161  A    between atoms: _393  and  _396
REMARK  162  A    between atoms: _396  and  _397
REMARK  163  A    between atoms: _400  and  _402
REMARK  164  A    between atoms: _402  and  _403
REMARK  165  A    between atoms: _402  and  _405
REMARK  166  A    between atoms: _405  and  _406
REMARK  167  A    between atoms: _406  and  _407
REMARK  168  A    between atoms: _407  and  _408
REMARK  169  A    between atoms: _408  and  _409
REMARK  170  A    between atoms: _413  and  _415
REMARK  171  A    between atoms: _415  and  _416
REMARK  172  A    between atoms: _415  and  _418
REMARK  173  A    between atoms: _421  and  _423
REMARK  174  A    between atoms: _423  and  _424
REMARK  175  A    between atoms: _427  and  _429
REMARK  176  A    between atoms: _429  and  _430
REMARK  177  A    between atoms: _429  and  _432
REMARK  178  A    between atoms: _432  and  _433
REMARK  179  A    between atoms: _436  and  _438
REMARK  180  A    between atoms: _438  and  _439
REMARK  181  A    between atoms: _438  and  _441
REMARK  182  A    between atoms: _441  and  _442
REMARK  183  A    between atoms: _448  and  _450
REMARK  184  A    between atoms: _450  and  _451
REMARK  185  A    between atoms: _450  and  _453
REMARK  186  A    between atoms: _453  and  _454
REMARK  187  A    between atoms: _457  and  _459
REMARK  188  A    between atoms: _459  and  _460
REMARK  189  A    between atoms: _463  and  _465
REMARK  190  A    between atoms: _465  and  _466
REMARK  191  A    between atoms: _465  and  _468
REMARK  192  A    between atoms: _468  and  _469
REMARK  193  A    between atoms: _469  and  _470
REMARK  194  A    between atoms: _470  and  _471
REMARK  195  A    between atoms: _480  and  _482
REMARK  196  A    between atoms: _482  and  _483
REMARK  197  A    between atoms: _482  and  _485
REMARK  198  A    between atoms: _485  and  _486
REMARK  199  A    between atoms: _489  and  _491
REMARK  200  A    between atoms: _491  and  _492
REMARK  201  A    between atoms: _491  and  _494
REMARK  202  A    between atoms: _494  and  _495
REMARK  203  A    between atoms: _495  and  _496
REMARK  204  A    between atoms: _498  and  _500
REMARK  205  A    between atoms: _500  and  _501
REMARK  206  A    between atoms: _500  and  _503
REMARK  207  A    between atoms: _503  and  _504
REMARK  208  A    between atoms: _509  and  _510
REMARK  209  A    between atoms: _512  and  _514
REMARK  210  A    between atoms: _514  and  _515
REMARK  211  A    between atoms: _514  and  _517
REMARK  212  A    between atoms: _517  and  _518
REMARK  213  A    between atoms: _521  and  _523
REMARK  214  A    between atoms: _523  and  _524
REMARK  215  A    between atoms: _523  and  _526
REMARK  216  A    between atoms: _526  and  _527
REMARK  217  A    between atoms: _532  and  _533
REMARK                            x       y       z     vdW  Elec       q    Type
REMARK                         _______ _______ _______ _____ _____    ______ ____
ROOT
ATOM      1  O   HOH     1      16.386  10.526  46.552  0.00  0.00    +0.000 OA
ENDROOT
TORSDOF 0
REMARK  Name = ../refined-set-2016/3zbx/3zbx_pocket.pdb
REMARK  217 active torsions:
REMARK  status: ('A' for Active; 'I' for Inactive)
REMARK    1  A    between atoms: _1  and  _3
REMARK    2  A    between atoms: _3  and  _4
REMARK    3  A    between atoms: _3  and  _6
REMARK    4  A    between atoms: _9  and  _11
REMARK    5  A    between atoms: _11  and  _12
REMARK    6  A    between atoms: _11  and  _14
REMARK    7  A    between atoms: _14  and  _15
REMARK    8  A    between atoms: _18  and  _20
REMARK    9  A    between atoms: _20  and  _21
REMARK   10  A    between atoms: _23  and  _25
REMARK   11  A    between atoms: _25  and  _26
REMARK   12  A    between atoms: _25  and  _28
REMARK   13  A    between atoms: _28  and  _29
REMARK   14  A    between atoms: _29  and  _30
REMARK   15  A    between atoms: _30  and  _31
REMARK   16  A    between atoms: _40  and  _42
REMARK   17  A    between atoms: _42  and  _43
REMARK   18  A    between atoms: _45  and  _47
REMARK   19  A    between atoms: _47  and  _48
REMARK   20  A    between atoms: _47  and  _50
REMARK   21  A    between atoms: _52  and  _54
REMARK   22  A    between atoms: _54  and  _55
REMARK   23  A    between atoms: _54  and  _57
REMARK   24  A    between atoms: _60  and  _62
REMARK   25  A    between atoms: _62  and  _63
REMARK   26  A    between atoms: _62  and  _65
REMARK   27  A    between atoms: _65  and  _66
REMARK   28  A    between atoms: _71  and  _72
REMARK   29  A    between atoms: _74  and  _76
REMARK   30  A    between atoms: _76  and  _77
REMARK   31  A    between atoms: _76  and  _79
REMARK   32  A    between atoms: _79  and  _80
REMARK   33  A    between atoms: _85  and  _87
REMARK   34  A    between atoms: _87  and  _88
REMARK   35  A    between atoms: _87  and  _90
REMARK   36  A    between atoms: _90  and  _91
REMARK   37  A    between atoms: _96  and  _98
REMARK   38  A    between atoms: _98  and  _99
REMARK   39  A    between atoms: _98  and  _101
REMARK   40  A    between atoms: _103  and  _105
REMARK   41  A    between atoms: _105  and  _106
REMARK   42  A    between atoms: _109  and  _111
REMARK   43  A    between atoms: _111  and  _112
REMARK   44  A    between atoms: _111  and  _114
REMARK   45  A    between atoms: _117  and  _119
REMARK   46  A    between atoms: _119  and  _120
REMARK   47  A    between atoms: _119  and  _122
REMARK   48  A    between atoms: _122  and  _123
REMARK   49  A    between atoms: _123  and  _124
REMARK   50  A    between atoms: _124  and  _125
REMARK   51  A    between atoms: _125  and  _126
REMARK   52  A    between atoms: _130  and  _132
REMARK   53  A    between atoms: _132  and  _133
REMARK   54  A    between atoms: _132  and  _135
REMARK   55  A    between atoms: _135  and  _136
REMARK   56  A    between atoms: _138  and  _140
REMARK   57  A    between atoms: _140  and  _141
REMARK   58  A    between atoms: _140  and  _143
REMARK   59  A    between atoms: _143  and  _144
REMARK   60  A    between atoms: _144  and  _145
REMARK   61  A    between atoms: _147  and  _149
REMARK   62  A    between atoms: _149  and  _150
REMARK   63  A    between atoms: _149  and  _152
REMARK   64  A    between atoms: _152  and  _153
REMARK   65  A    between atoms: _156  and  _158
REMARK   66  A    between atoms: _158  and  _159
REMARK   67  A    between atoms: _158  and  _161
REMARK   68  A    between atoms: _161  and  _162
REMARK   69  A    between atoms: _164  and  _166
REMARK   70  A    between atoms: _166  and  _167
REMARK   71  A    between atoms: _166  and  _169
REMARK   72  A    between atoms: _172  and  _174
REMARK   73  A    between atoms: _174  and  _175
REMARK   74  A    between atoms: _174  and  _177
REMARK   75  A    between atoms: _180  and  _182
REMARK   76  A    between atoms: _182  and  _183
REMARK   77  A    between atoms: _182  and  _185
REMARK   78  A    between atoms: _185  and  _186
REMARK   79  A    between atoms: _190  and  _191
REMARK   80  A    between atoms: _196  and  _198
REMARK   81  A    between atoms: _198  and  _199
REMARK   82  A    between atoms: _198  and  _201
REMARK   83  A    between atoms: _201  and  _202
REMARK   84  A    between atoms: _207  and  _208
REMARK   85  A    between atoms: _210  and  _212
REMARK   86  A    between atoms: _212  and  _213
REMARK   87  A    between atoms: _212  and  _215
REMARK   88  A    between atoms: _215  and  _216
REMARK   89  A    between atoms: _216  and  _217
REMARK   90  A    between atoms: _219  and  _221
REMARK   91  A    between atoms: _221  and  _222
REMARK   92  A    between atoms: _221  and  _224
REMARK   93  A    between atoms: _224  and  _225
REMARK   94  A    between atoms: _225  and  _226
REMARK   95  A    between atoms: _226  and  _227
REMARK   96  A    between atoms: _227  and  _228
REMARK   97  A    between atoms: _232  and  _234
REMARK   98  A    between atoms: _234  and  _235
REMARK   99  A    between atoms: _234  and  _237
REMARK  100  A    between atoms: _237  and  _238
REMARK  101  A    between atoms: _243  and  _245
REMARK  102  A    between atoms: _245  and  _246
REMARK  103  A    between atoms: _248  and  _250
REMARK  104  A    between atoms: _250  and  _251
REMARK  105  A    between atoms: _250  and  _253
REMARK  106  A    between atoms: _253  and  _254
REMARK  107  A    between atoms: _257  and  _259
REMARK  108  A    between atoms: _259  and  _260
REMARK  109  A    between atoms: _259  and  _262
REMARK  110  A    between atoms: _262  and  _263
REMARK  111  A    between atoms: _266  and  _268
REMARK  112  A    between atoms: _268  and  _269
REMARK  113  A    between atoms: _268  and  _271
REMARK  114  A    between atoms: _271  and  _272
REMARK  115  A    between atoms: _272  and  _273
REMARK  116  A    between atoms: _273  and  _274
REMARK  117  A    between atoms: _283  and  _285
REMARK  118  A    between atoms: _285  and  _286
REMARK  119  A    between atoms: _285  and  _288
REMARK  120  A    between atoms: _288  and  _289
REMARK  121  A    between atoms: _294  and  _296
REMARK  122  A    between atoms: _296  and  _297
REMARK  123  A    between atoms: _296  and  _299
REMARK  124  A    between atoms: _299  and  _300
REMARK  125  A    between atoms: _306  and  _308
REMARK  126  A    between atoms: _308  and  _309
REMARK  127  A    between atoms: _308  and  _311
REMARK  128  A    between atoms: _311  and  _312
REMARK  129  A    between atoms: _317  and  _319
REMARK  130  A    between atoms: _319  and  _320
REMARK  131  A    between atoms: _319  and  _322
REMARK  132  A    between atoms: _322  and  _323
REMARK  133  A    between atoms: _326  and  _328
REMARK  134  A    between atoms: _328  and  _329
REMARK  135  A    between atoms: _332  and  _334
REMARK  136  A    between atoms: _334  and  _335
REMARK  137  A    between atoms: _338  and  _340
REMARK  138  A    between atoms: _340  and  _341
REMARK  139  A    between atoms: _340  and  _343
REMARK  140  A    between atoms: _343  and  _344
REMARK  141  A    between atoms: _344  and  _345
REMARK  142  A    between atoms: _345  and  _346
REMARK  143  A    between atoms: _355  and  _357
REMARK  144  A    between atoms: _357  and  _358
REMARK  145  A    between atoms: _357  and  _360
REMARK  146  A    between atoms: _360  and  _361
REMARK  147  A    between atoms: _366  and  _368
REMARK  148  A    between atoms: _368  and  _369
REMARK  149  A    between atoms: _368  and  _371
REMARK  150  A    between atoms: _373  and  _375
REMARK  151  A    between atoms: _375  and  _376
REMARK  152  A    between atoms: _375  and  _378
REMARK  153  A    between atoms: _378  and  _379
REMARK  154  A    between atoms: _379  and  _380
REMARK  155  A    between atoms: _382  and  _384
REMARK  156  A    between atoms: _384  and  _385
REMARK  157  A    between atoms: _384  and  _387
REMARK  158  A    between atoms: _387  and  _388
REMARK  159  A    between atoms: _391  and  _393
REMARK  160  A    between atoms: _393  and  _394
REMARK  161  A    between atoms: _393  and  _396
REMARK  162  A    between atoms: _396  and  _397
REMARK  163  A    between atoms: _400  and  _402
REMARK  164  A    between atoms: _402  and  _403
REMARK  165  A    between atoms: _402  and  _405
REMARK  166  A    between atoms: _405  and  _406
REMARK  167  A    between atoms: _406  and  _407
REMARK  168  A    between atoms: _407  and  _408
REMARK  169  A    between atoms: _408  and  _409
REMARK  170  A    between atoms: _413  and  _415
REMARK  171  A    between atoms: _415  and  _416
REMARK  172  A    between atoms: _415  and  _418
REMARK  173  A    between atoms: _421  and  _423
REMARK  174  A    between atoms: _423  and  _424
REMARK  175  A    between atoms: _427  and  _429
REMARK  176  A    between atoms: _429  and  _430
REMARK  177  A    between atoms: _429  and  _432
REMARK  178  A    between atoms: _432  and  _433
REMARK  179  A    between atoms: _436  and  _438
REMARK  180  A    between atoms: _438  and  _439
REMARK  181  A    between atoms: _438  and  _441
REMARK  182  A    between atoms: _441  and  _442
REMARK  183  A    between atoms: _448  and  _450
REMARK  184  A    between atoms: _450  and  _451
REMARK  185  A    between atoms: _450  and  _453
REMARK  186  A    between atoms: _453  and  _454
REMARK  187  A    between atoms: _457  and  _459
REMARK  188  A    between atoms: _459  and  _460
REMARK  189  A    between atoms: _463  and  _465
REMARK  190  A    between atoms: _465  and  _466
REMARK  191  A    between atoms: _465  and  _468
REMARK  192  A    between atoms: _468  and  _469
REMARK  193  A    between atoms: _469  and  _470
REMARK  194  A    between atoms: _470  and  _471
REMARK  195  A    between atoms: _480  and  _482
REMARK  196  A    between atoms: _482  and  _483
REMARK  197  A    between atoms: _482  and  _485
REMARK  198  A    between atoms: _485  and  _486
REMARK  199  A    between atoms: _489  and  _491
REMARK  200  A    between atoms: _491  and  _492
REMARK  201  A    between atoms: _491  and  _494
REMARK  202  A    between atoms: _494  and  _495
REMARK  203  A    between atoms: _495  and  _496
REMARK  204  A    between atoms: _498  and  _500
REMARK  205  A    between atoms: _500  and  _501
REMARK  206  A    between atoms: _500  and  _503
REMARK  207  A    between atoms: _503  and  _504
REMARK  208  A    between atoms: _509  and  _510
REMARK  209  A    between atoms: _512  and  _514
REMARK  210  A    between atoms: _514  and  _515
REMARK  211  A    between atoms: _514  and  _517
REMARK  212  A    between atoms: _517  and  _518
REMARK  213  A    between atoms: _521  and  _523
REMARK  214  A    between atoms: _523  and  _524
REMARK  215  A    between atoms: _523  and  _526
REMARK  216  A    between atoms: _526  and  _527
REMARK  217  A    between atoms: _532  and  _533
REMARK                            x       y       z     vdW  Elec       q    Type
REMARK                         _______ _______ _______ _____ _____    ______ ____
ROOT
ATOM      1  O   HOH     1      17.987   8.016  51.693  0.00  0.00    +0.000 OA
ENDROOT
TORSDOF 0
REMARK  Name = ../refined-set-2016/3zbx/3zbx_pocket.pdb
REMARK  217 active torsions:
REMARK  status: ('A' for Active; 'I' for Inactive)
REMARK    1  A    between atoms: _1  and  _3
REMARK    2  A    between atoms: _3  and  _4
REMARK    3  A    between atoms: _3  and  _6
REMARK    4  A    between atoms: _9  and  _11
REMARK    5  A    between atoms: _11  and  _12
REMARK    6  A    between atoms: _11  and  _14
REMARK    7  A    between atoms: _14  and  _15
REMARK    8  A    between atoms: _18  and  _20
REMARK    9  A    between atoms: _20  and  _21
REMARK   10  A    between atoms: _23  and  _25
REMARK   11  A    between atoms: _25  and  _26
REMARK   12  A    between atoms: _25  and  _28
REMARK   13  A    between atoms: _28  and  _29
REMARK   14  A    between atoms: _29  and  _30
REMARK   15  A    between atoms: _30  and  _31
REMARK   16  A    between atoms: _40  and  _42
REMARK   17  A    between atoms: _42  and  _43
REMARK   18  A    between atoms: _45  and  _47
REMARK   19  A    between atoms: _47  and  _48
REMARK   20  A    between atoms: _47  and  _50
REMARK   21  A    between atoms: _52  and  _54
REMARK   22  A    between atoms: _54  and  _55
REMARK   23  A    between atoms: _54  and  _57
REMARK   24  A    between atoms: _60  and  _62
REMARK   25  A    between atoms: _62  and  _63
REMARK   26  A    between atoms: _62  and  _65
REMARK   27  A    between atoms: _65  and  _66
REMARK   28  A    between atoms: _71  and  _72
REMARK   29  A    between atoms: _74  and  _76
REMARK   30  A    between atoms: _76  and  _77
REMARK   31  A    between atoms: _76  and  _79
REMARK   32  A    between atoms: _79  and  _80
REMARK   33  A    between atoms: _85  and  _87
REMARK   34  A    between atoms: _87  and  _88
REMARK   35  A    between atoms: _87  and  _90
REMARK   36  A    between atoms: _90  and  _91
REMARK   37  A    between atoms: _96  and  _98
REMARK   38  A    between atoms: _98  and  _99
REMARK   39  A    between atoms: _98  and  _101
REMARK   40  A    between atoms: _103  and  _105
REMARK   41  A    between atoms: _105  and  _106
REMARK   42  A    between atoms: _109  and  _111
REMARK   43  A    between atoms: _111  and  _112
REMARK   44  A    between atoms: _111  and  _114
REMARK   45  A    between atoms: _117  and  _119
REMARK   46  A    between atoms: _119  and  _120
REMARK   47  A    between atoms: _119  and  _122
REMARK   48  A    between atoms: _122  and  _123
REMARK   49  A    between atoms: _123  and  _124
REMARK   50  A    between atoms: _124  and  _125
REMARK   51  A    between atoms: _125  and  _126
REMARK   52  A    between atoms: _130  and  _132
REMARK   53  A    between atoms: _132  and  _133
REMARK   54  A    between atoms: _132  and  _135
REMARK   55  A    between atoms: _135  and  _136
REMARK   56  A    between atoms: _138  and  _140
REMARK   57  A    between atoms: _140  and  _141
REMARK   58  A    between atoms: _140  and  _143
REMARK   59  A    between atoms: _143  and  _144
REMARK   60  A    between atoms: _144  and  _145
REMARK   61  A    between atoms: _147  and  _149
REMARK   62  A    between atoms: _149  and  _150
REMARK   63  A    between atoms: _149  and  _152
REMARK   64  A    between atoms: _152  and  _153
REMARK   65  A    between atoms: _156  and  _158
REMARK   66  A    between atoms: _158  and  _159
REMARK   67  A    between atoms: _158  and  _161
REMARK   68  A    between atoms: _161  and  _162
REMARK   69  A    between atoms: _164  and  _166
REMARK   70  A    between atoms: _166  and  _167
REMARK   71  A    between atoms: _166  and  _169
REMARK   72  A    between atoms: _172  and  _174
REMARK   73  A    between atoms: _174  and  _175
REMARK   74  A    between atoms: _174  and  _177
REMARK   75  A    between atoms: _180  and  _182
REMARK   76  A    between atoms: _182  and  _183
REMARK   77  A    between atoms: _182  and  _185
REMARK   78  A    between atoms: _185  and  _186
REMARK   79  A    between atoms: _190  and  _191
REMARK   80  A    between atoms: _196  and  _198
REMARK   81  A    between atoms: _198  and  _199
REMARK   82  A    between atoms: _198  and  _201
REMARK   83  A    between atoms: _201  and  _202
REMARK   84  A    between atoms: _207  and  _208
REMARK   85  A    between atoms: _210  and  _212
REMARK   86  A    between atoms: _212  and  _213
REMARK   87  A    between atoms: _212  and  _215
REMARK   88  A    between atoms: _215  and  _216
REMARK   89  A    between atoms: _216  and  _217
REMARK   90  A    between atoms: _219  and  _221
REMARK   91  A    between atoms: _221  and  _222
REMARK   92  A    between atoms: _221  and  _224
REMARK   93  A    between atoms: _224  and  _225
REMARK   94  A    between atoms: _225  and  _226
REMARK   95  A    between atoms: _226  and  _227
REMARK   96  A    between atoms: _227  and  _228
REMARK   97  A    between atoms: _232  and  _234
REMARK   98  A    between atoms: _234  and  _235
REMARK   99  A    between atoms: _234  and  _237
REMARK  100  A    between atoms: _237  and  _238
REMARK  101  A    between atoms: _243  and  _245
REMARK  102  A    between atoms: _245  and  _246
REMARK  103  A    between atoms: _248  and  _250
REMARK  104  A    between atoms: _250  and  _251
REMARK  105  A    between atoms: _250  and  _253
REMARK  106  A    between atoms: _253  and  _254
REMARK  107  A    between atoms: _257  and  _259
REMARK  108  A    between atoms: _259  and  _260
REMARK  109  A    between atoms: _259  and  _262
REMARK  110  A    between atoms: _262  and  _263
REMARK  111  A    between atoms: _266  and  _268
REMARK  112  A    between atoms: _268  and  _269
REMARK  113  A    between atoms: _268  and  _271
REMARK  114  A    between atoms: _271  and  _272
REMARK  115  A    between atoms: _272  and  _273
REMARK  116  A    between atoms: _273  and  _274
REMARK  117  A    between atoms: _283  and  _285
REMARK  118  A    between atoms: _285  and  _286
REMARK  119  A    between atoms: _285  and  _288
REMARK  120  A    between atoms: _288  and  _289
REMARK  121  A    between atoms: _294  and  _296
REMARK  122  A    between atoms: _296  and  _297
REMARK  123  A    between atoms: _296  and  _299
REMARK  124  A    between atoms: _299  and  _300
REMARK  125  A    between atoms: _306  and  _308
REMARK  126  A    between atoms: _308  and  _309
REMARK  127  A    between atoms: _308  and  _311
REMARK  128  A    between atoms: _311  and  _312
REMARK  129  A    between atoms: _317  and  _319
REMARK  130  A    between atoms: _319  and  _320
REMARK  131  A    between atoms: _319  and  _322
REMARK  132  A    between atoms: _322  and  _323
REMARK  133  A    between atoms: _326  and  _328
REMARK  134  A    between atoms: _328  and  _329
REMARK  135  A    between atoms: _332  and  _334
REMARK  136  A    between atoms: _334  and  _335
REMARK  137  A    between atoms: _338  and  _340
REMARK  138  A    between atoms: _340  and  _341
REMARK  139  A    between atoms: _340  and  _343
REMARK  140  A    between atoms: _343  and  _344
REMARK  141  A    between atoms: _344  and  _345
REMARK  142  A    between atoms: _345  and  _346
REMARK  143  A    between atoms: _355  and  _357
REMARK  144  A    between atoms: _357  and  _358
REMARK  145  A    between atoms: _357  and  _360
REMARK  146  A    between atoms: _360  and  _361
REMARK  147  A    between atoms: _366  and  _368
REMARK  148  A    between atoms: _368  and  _369
REMARK  149  A    between atoms: _368  and  _371
REMARK  150  A    between atoms: _373  and  _375
REMARK  151  A    between atoms: _375  and  _376
REMARK  152  A    between atoms: _375  and  _378
REMARK  153  A    between atoms: _378  and  _379
REMARK  154  A    between atoms: _379  and  _380
REMARK  155  A    between atoms: _382  and  _384
REMARK  156  A    between atoms: _384  and  _385
REMARK  157  A    between atoms: _384  and  _387
REMARK  158  A    between atoms: _387  and  _388
REMARK  159  A    between atoms: _391  and  _393
REMARK  160  A    between atoms: _393  and  _394
REMARK  161  A    between atoms: _393  and  _396
REMARK  162  A    between atoms: _396  and  _397
REMARK  163  A    between atoms: _400  and  _402
REMARK  164  A    between atoms: _402  and  _403
REMARK  165  A    between atoms: _402  and  _405
REMARK  166  A    between atoms: _405  and  _406
REMARK  167  A    between atoms: _406  and  _407
REMARK  168  A    between atoms: _407  and  _408
REMARK  169  A    between atoms: _408  and  _409
REMARK  170  A    between atoms: _413  and  _415
REMARK  171  A    between atoms: _415  and  _416
REMARK  172  A    between atoms: _415  and  _418
REMARK  173  A    between atoms: _421  and  _423
REMARK  174  A    between atoms: _423  and  _424
REMARK  175  A    between atoms: _427  and  _429
REMARK  176  A    between atoms: _429  and  _430
REMARK  177  A    between atoms: _429  and  _432
REMARK  178  A    between atoms: _432  and  _433
REMARK  179  A    between atoms: _436  and  _438
REMARK  180  A    between atoms: _438  and  _439
REMARK  181  A    between atoms: _438  and  _441
REMARK  182  A    between atoms: _441  and  _442
REMARK  183  A    between atoms: _448  and  _450
REMARK  184  A    between atoms: _450  and  _451
REMARK  185  A    between atoms: _450  and  _453
REMARK  186  A    between atoms: _453  and  _454
REMARK  187  A    between atoms: _457  and  _459
REMARK  188  A    between atoms: _459  and  _460
REMARK  189  A    between atoms: _463  and  _465
REMARK  190  A    between atoms: _465  and  _466
REMARK  191  A    between atoms: _465  and  _468
REMARK  192  A    between atoms: _468  and  _469
REMARK  193  A    between atoms: _469  and  _470
REMARK  194  A    between atoms: _470  and  _471
REMARK  195  A    between atoms: _480  and  _482
REMARK  196  A    between atoms: _482  and  _483
REMARK  197  A    between atoms: _482  and  _485
REMARK  198  A    between atoms: _485  and  _486
REMARK  199  A    between atoms: _489  and  _491
REMARK  200  A    between atoms: _491  and  _492
REMARK  201  A    between atoms: _491  and  _494
REMARK  202  A    between atoms: _494  and  _495
REMARK  203  A    between atoms: _495  and  _496
REMARK  204  A    between atoms: _498  and  _500
REMARK  205  A    between atoms: _500  and  _501
REMARK  206  A    between atoms: _500  and  _503
REMARK  207  A    between atoms: _503  and  _504
REMARK  208  A    between atoms: _509  and  _510
REMARK  209  A    between atoms: _512  and  _514
REMARK  210  A    between atoms: _514  and  _515
REMARK  211  A    between atoms: _514  and  _517
REMARK  212  A    between atoms: _517  and  _518
REMARK  213  A    between atoms: _521  and  _523
REMARK  214  A    between atoms: _523  and  _524
REMARK  215  A    between atoms: _523  and  _526
REMARK  216  A    between atoms: _526  and  _527
REMARK  217  A    between atoms: _532  and  _533
REMARK                            x       y       z     vdW  Elec       q    Type
REMARK                         _______ _______ _______ _____ _____    ______ ____
ROOT
ATOM      1  O   HOH     1      13.067   5.264  37.340  0.00  0.00    +0.000 OA
ENDROOT
TORSDOF 0
REMARK  Name = ../refined-set-2016/3zbx/3zbx_pocket.pdb
REMARK  217 active torsions:
REMARK  status: ('A' for Active; 'I' for Inactive)
REMARK    1  A    between atoms: _1  and  _3
REMARK    2  A    between atoms: _3  and  _4
REMARK    3  A    between atoms: _3  and  _6
REMARK    4  A    between atoms: _9  and  _11
REMARK    5  A    between atoms: _11  and  _12
REMARK    6  A    between atoms: _11  and  _14
REMARK    7  A    between atoms: _14  and  _15
REMARK    8  A    between atoms: _18  and  _20
REMARK    9  A    between atoms: _20  and  _21
REMARK   10  A    between atoms: _23  and  _25
REMARK   11  A    between atoms: _25  and  _26
REMARK   12  A    between atoms: _25  and  _28
REMARK   13  A    between atoms: _28  and  _29
REMARK   14  A    between atoms: _29  and  _30
REMARK   15  A    between atoms: _30  and  _31
REMARK   16  A    between atoms: _40  and  _42
REMARK   17  A    between atoms: _42  and  _43
REMARK   18  A    between atoms: _45  and  _47
REMARK   19  A    between atoms: _47  and  _48
REMARK   20  A    between atoms: _47  and  _50
REMARK   21  A    between atoms: _52  and  _54
REMARK   22  A    between atoms: _54  and  _55
REMARK   23  A    between atoms: _54  and  _57
REMARK   24  A    between atoms: _60  and  _62
REMARK   25  A    between atoms: _62  and  _63
REMARK   26  A    between atoms: _62  and  _65
REMARK   27  A    between atoms: _65  and  _66
REMARK   28  A    between atoms: _71  and  _72
REMARK   29  A    between atoms: _74  and  _76
REMARK   30  A    between atoms: _76  and  _77
REMARK   31  A    between atoms: _76  and  _79
REMARK   32  A    between atoms: _79  and  _80
REMARK   33  A    between atoms: _85  and  _87
REMARK   34  A    between atoms: _87  and  _88
REMARK   35  A    between atoms: _87  and  _90
REMARK   36  A    between atoms: _90  and  _91
REMARK   37  A    between atoms: _96  and  _98
REMARK   38  A    between atoms: _98  and  _99
REMARK   39  A    between atoms: _98  and  _101
REMARK   40  A    between atoms: _103  and  _105
REMARK   41  A    between atoms: _105  and  _106
REMARK   42  A    between atoms: _109  and  _111
REMARK   43  A    between atoms: _111  and  _112
REMARK   44  A    between atoms: _111  and  _114
REMARK   45  A    between atoms: _117  and  _119
REMARK   46  A    between atoms: _119  and  _120
REMARK   47  A    between atoms: _119  and  _122
REMARK   48  A    between atoms: _122  and  _123
REMARK   49  A    between atoms: _123  and  _124
REMARK   50  A    between atoms: _124  and  _125
REMARK   51  A    between atoms: _125  and  _126
REMARK   52  A    between atoms: _130  and  _132
REMARK   53  A    between atoms: _132  and  _133
REMARK   54  A    between atoms: _132  and  _135
REMARK   55  A    between atoms: _135  and  _136
REMARK   56  A    between atoms: _138  and  _140
REMARK   57  A    between atoms: _140  and  _141
REMARK   58  A    between atoms: _140  and  _143
REMARK   59  A    between atoms: _143  and  _144
REMARK   60  A    between atoms: _144  and  _145
REMARK   61  A    between atoms: _147  and  _149
REMARK   62  A    between atoms: _149  and  _150
REMARK   63  A    between atoms: _149  and  _152
REMARK   64  A    between atoms: _152  and  _153
REMARK   65  A    between atoms: _156  and  _158
REMARK   66  A    between atoms: _158  and  _159
REMARK   67  A    between atoms: _158  and  _161
REMARK   68  A    between atoms: _161  and  _162
REMARK   69  A    between atoms: _164  and  _166
REMARK   70  A    between atoms: _166  and  _167
REMARK   71  A    between atoms: _166  and  _169
REMARK   72  A    between atoms: _172  and  _174
REMARK   73  A    between atoms: _174  and  _175
REMARK   74  A    between atoms: _174  and  _177
REMARK   75  A    between atoms: _180  and  _182
REMARK   76  A    between atoms: _182  and  _183
REMARK   77  A    between atoms: _182  and  _185
REMARK   78  A    between atoms: _185  and  _186
REMARK   79  A    between atoms: _190  and  _191
REMARK   80  A    between atoms: _196  and  _198
REMARK   81  A    between atoms: _198  and  _199
REMARK   82  A    between atoms: _198  and  _201
REMARK   83  A    between atoms: _201  and  _202
REMARK   84  A    between atoms: _207  and  _208
REMARK   85  A    between atoms: _210  and  _212
REMARK   86  A    between atoms: _212  and  _213
REMARK   87  A    between atoms: _212  and  _215
REMARK   88  A    between atoms: _215  and  _216
REMARK   89  A    between atoms: _216  and  _217
REMARK   90  A    between atoms: _219  and  _221
REMARK   91  A    between atoms: _221  and  _222
REMARK   92  A    between atoms: _221  and  _224
REMARK   93  A    between atoms: _224  and  _225
REMARK   94  A    between atoms: _225  and  _226
REMARK   95  A    between atoms: _226  and  _227
REMARK   96  A    between atoms: _227  and  _228
REMARK   97  A    between atoms: _232  and  _234
REMARK   98  A    between atoms: _234  and  _235
REMARK   99  A    between atoms: _234  and  _237
REMARK  100  A    between atoms: _237  and  _238
REMARK  101  A    between atoms: _243  and  _245
REMARK  102  A    between atoms: _245  and  _246
REMARK  103  A    between atoms: _248  and  _250
REMARK  104  A    between atoms: _250  and  _251
REMARK  105  A    between atoms: _250  and  _253
REMARK  106  A    between atoms: _253  and  _254
REMARK  107  A    between atoms: _257  and  _259
REMARK  108  A    between atoms: _259  and  _260
REMARK  109  A    between atoms: _259  and  _262
REMARK  110  A    between atoms: _262  and  _263
REMARK  111  A    between atoms: _266  and  _268
REMARK  112  A    between atoms: _268  and  _269
REMARK  113  A    between atoms: _268  and  _271
REMARK  114  A    between atoms: _271  and  _272
REMARK  115  A    between atoms: _272  and  _273
REMARK  116  A    between atoms: _273  and  _274
REMARK  117  A    between atoms: _283  and  _285
REMARK  118  A    between atoms: _285  and  _286
REMARK  119  A    between atoms: _285  and  _288
REMARK  120  A    between atoms: _288  and  _289
REMARK  121  A    between atoms: _294  and  _296
REMARK  122  A    between atoms: _296  and  _297
REMARK  123  A    between atoms: _296  and  _299
REMARK  124  A    between atoms: _299  and  _300
REMARK  125  A    between atoms: _306  and  _308
REMARK  126  A    between atoms: _308  and  _309
REMARK  127  A    between atoms: _308  and  _311
REMARK  128  A    between atoms: _311  and  _312
REMARK  129  A    between atoms: _317  and  _319
REMARK  130  A    between atoms: _319  and  _320
REMARK  131  A    between atoms: _319  and  _322
REMARK  132  A    between atoms: _322  and  _323
REMARK  133  A    between atoms: _326  and  _328
REMARK  134  A    between atoms: _328  and  _329
REMARK  135  A    between atoms: _332  and  _334
REMARK  136  A    between atoms: _334  and  _335
REMARK  137  A    between atoms: _338  and  _340
REMARK  138  A    between atoms: _340  and  _341
REMARK  139  A    between atoms: _340  and  _343
REMARK  140  A    between atoms: _343  and  _344
REMARK  141  A    between atoms: _344  and  _345
REMARK  142  A    between atoms: _345  and  _346
REMARK  143  A    between atoms: _355  and  _357
REMARK  144  A    between atoms: _357  and  _358
REMARK  145  A    between atoms: _357  and  _360
REMARK  146  A    between atoms: _360  and  _361
REMARK  147  A    between atoms: _366  and  _368
REMARK  148  A    between atoms: _368  and  _369
REMARK  149  A    between atoms: _368  and  _371
REMARK  150  A    between atoms: _373  and  _375
REMARK  151  A    between atoms: _375  and  _376
REMARK  152  A    between atoms: _375  and  _378
REMARK  153  A    between atoms: _378  and  _379
REMARK  154  A    between atoms: _379  and  _380
REMARK  155  A    between atoms: _382  and  _384
REMARK  156  A    between atoms: _384  and  _385
REMARK  157  A    between atoms: _384  and  _387
REMARK  158  A    between atoms: _387  and  _388
REMARK  159  A    between atoms: _391  and  _393
REMARK  160  A    between atoms: _393  and  _394
REMARK  161  A    between atoms: _393  and  _396
REMARK  162  A    between atoms: _396  and  _397
REMARK  163  A    between atoms: _400  and  _402
REMARK  164  A    between atoms: _402  and  _403
REMARK  165  A    between atoms: _402  and  _405
REMARK  166  A    between atoms: _405  and  _406
REMARK  167  A    between atoms: _406  and  _407
REMARK  168  A    between atoms: _407  and  _408
REMARK  169  A    between atoms: _408  and  _409
REMARK  170  A    between atoms: _413  and  _415
REMARK  171  A    between atoms: _415  and  _416
REMARK  172  A    between atoms: _415  and  _418
REMARK  173  A    between atoms: _421  and  _423
REMARK  174  A    between atoms: _423  and  _424
REMARK  175  A    between atoms: _427  and  _429
REMARK  176  A    between atoms: _429  and  _430
REMARK  177  A    between atoms: _429  and  _432
REMARK  178  A    between atoms: _432  and  _433
REMARK  179  A    between atoms: _436  and  _438
REMARK  180  A    between atoms: _438  and  _439
REMARK  181  A    between atoms: _438  and  _441
REMARK  182  A    between atoms: _441  and  _442
REMARK  183  A    between atoms: _448  and  _450
REMARK  184  A    between atoms: _450  and  _451
REMARK  185  A    between atoms: _450  and  _453
REMARK  186  A    between atoms: _453  and  _454
REMARK  187  A    between atoms: _457  and  _459
REMARK  188  A    between atoms: _459  and  _460
REMARK  189  A    between atoms: _463  and  _465
REMARK  190  A    between atoms: _465  and  _466
REMARK  191  A    between atoms: _465  and  _468
REMARK  192  A    between atoms: _468  and  _469
REMARK  193  A    between atoms: _469  and  _470
REMARK  194  A    between atoms: _470  and  _471
REMARK  195  A    between atoms: _480  and  _482
REMARK  196  A    between atoms: _482  and  _483
REMARK  197  A    between atoms: _482  and  _485
REMARK  198  A    between atoms: _485  and  _486
REMARK  199  A    between atoms: _489  and  _491
REMARK  200  A    between atoms: _491  and  _492
REMARK  201  A    between atoms: _491  and  _494
REMARK  202  A    between atoms: _494  and  _495
REMARK  203  A    between atoms: _495  and  _496
REMARK  204  A    between atoms: _498  and  _500
REMARK  205  A    between atoms: _500  and  _501
REMARK  206  A    between atoms: _500  and  _503
REMARK  207  A    between atoms: _503  and  _504
REMARK  208  A    between atoms: _509  and  _510
REMARK  209  A    between atoms: _512  and  _514
REMARK  210  A    between atoms: _514  and  _515
REMARK  211  A    between atoms: _514  and  _517
REMARK  212  A    between atoms: _517  and  _518
REMARK  213  A    between atoms: _521  and  _523
REMARK  214  A    between atoms: _523  and  _524
REMARK  215  A    between atoms: _523  and  _526
REMARK  216  A    between atoms: _526  and  _527
REMARK  217  A    between atoms: _532  and  _533
REMARK                            x       y       z     vdW  Elec       q    Type
REMARK                         _______ _______ _______ _____ _____    ______ ____
ROOT
ATOM      1  O   HOH     1      30.786  10.491  38.170  0.00  0.00    +0.000 OA
ENDROOT
TORSDOF 0
REMARK  Name = ../refined-set-2016/3zbx/3zbx_pocket.pdb
REMARK  217 active torsions:
REMARK  status: ('A' for Active; 'I' for Inactive)
REMARK    1  A    between atoms: _1  and  _3
REMARK    2  A    between atoms: _3  and  _4
REMARK    3  A    between atoms: _3  and  _6
REMARK    4  A    between atoms: _9  and  _11
REMARK    5  A    between atoms: _11  and  _12
REMARK    6  A    between atoms: _11  and  _14
REMARK    7  A    between atoms: _14  and  _15
REMARK    8  A    between atoms: _18  and  _20
REMARK    9  A    between atoms: _20  and  _21
REMARK   10  A    between atoms: _23  and  _25
REMARK   11  A    between atoms: _25  and  _26
REMARK   12  A    between atoms: _25  and  _28
REMARK   13  A    between atoms: _28  and  _29
REMARK   14  A    between atoms: _29  and  _30
REMARK   15  A    between atoms: _30  and  _31
REMARK   16  A    between atoms: _40  and  _42
REMARK   17  A    between atoms: _42  and  _43
REMARK   18  A    between atoms: _45  and  _47
REMARK   19  A    between atoms: _47  and  _48
REMARK   20  A    between atoms: _47  and  _50
REMARK   21  A    between atoms: _52  and  _54
REMARK   22  A    between atoms: _54  and  _55
REMARK   23  A    between atoms: _54  and  _57
REMARK   24  A    between atoms: _60  and  _62
REMARK   25  A    between atoms: _62  and  _63
REMARK   26  A    between atoms: _62  and  _65
REMARK   27  A    between atoms: _65  and  _66
REMARK   28  A    between atoms: _71  and  _72
REMARK   29  A    between atoms: _74  and  _76
REMARK   30  A    between atoms: _76  and  _77
REMARK   31  A    between atoms: _76  and  _79
REMARK   32  A    between atoms: _79  and  _80
REMARK   33  A    between atoms: _85  and  _87
REMARK   34  A    between atoms: _87  and  _88
REMARK   35  A    between atoms: _87  and  _90
REMARK   36  A    between atoms: _90  and  _91
REMARK   37  A    between atoms: _96  and  _98
REMARK   38  A    between atoms: _98  and  _99
REMARK   39  A    between atoms: _98  and  _101
REMARK   40  A    between atoms: _103  and  _105
REMARK   41  A    between atoms: _105  and  _106
REMARK   42  A    between atoms: _109  and  _111
REMARK   43  A    between atoms: _111  and  _112
REMARK   44  A    between atoms: _111  and  _114
REMARK   45  A    between atoms: _117  and  _119
REMARK   46  A    between atoms: _119  and  _120
REMARK   47  A    between atoms: _119  and  _122
REMARK   48  A    between atoms: _122  and  _123
REMARK   49  A    between atoms: _123  and  _124
REMARK   50  A    between atoms: _124  and  _125
REMARK   51  A    between atoms: _125  and  _126
REMARK   52  A    between atoms: _130  and  _132
REMARK   53  A    between atoms: _132  and  _133
REMARK   54  A    between atoms: _132  and  _135
REMARK   55  A    between atoms: _135  and  _136
REMARK   56  A    between atoms: _138  and  _140
REMARK   57  A    between atoms: _140  and  _141
REMARK   58  A    between atoms: _140  and  _143
REMARK   59  A    between atoms: _143  and  _144
REMARK   60  A    between atoms: _144  and  _145
REMARK   61  A    between atoms: _147  and  _149
REMARK   62  A    between atoms: _149  and  _150
REMARK   63  A    between atoms: _149  and  _152
REMARK   64  A    between atoms: _152  and  _153
REMARK   65  A    between atoms: _156  and  _158
REMARK   66  A    between atoms: _158  and  _159
REMARK   67  A    between atoms: _158  and  _161
REMARK   68  A    between atoms: _161  and  _162
REMARK   69  A    between atoms: _164  and  _166
REMARK   70  A    between atoms: _166  and  _167
REMARK   71  A    between atoms: _166  and  _169
REMARK   72  A    between atoms: _172  and  _174
REMARK   73  A    between atoms: _174  and  _175
REMARK   74  A    between atoms: _174  and  _177
REMARK   75  A    between atoms: _180  and  _182
REMARK   76  A    between atoms: _182  and  _183
REMARK   77  A    between atoms: _182  and  _185
REMARK   78  A    between atoms: _185  and  _186
REMARK   79  A    between atoms: _190  and  _191
REMARK   80  A    between atoms: _196  and  _198
REMARK   81  A    between atoms: _198  and  _199
REMARK   82  A    between atoms: _198  and  _201
REMARK   83  A    between atoms: _201  and  _202
REMARK   84  A    between atoms: _207  and  _208
REMARK   85  A    between atoms: _210  and  _212
REMARK   86  A    between atoms: _212  and  _213
REMARK   87  A    between atoms: _212  and  _215
REMARK   88  A    between atoms: _215  and  _216
REMARK   89  A    between atoms: _216  and  _217
REMARK   90  A    between atoms: _219  and  _221
REMARK   91  A    between atoms: _221  and  _222
REMARK   92  A    between atoms: _221  and  _224
REMARK   93  A    between atoms: _224  and  _225
REMARK   94  A    between atoms: _225  and  _226
REMARK   95  A    between atoms: _226  and  _227
REMARK   96  A    between atoms: _227  and  _228
REMARK   97  A    between atoms: _232  and  _234
REMARK   98  A    between atoms: _234  and  _235
REMARK   99  A    between atoms: _234  and  _237
REMARK  100  A    between atoms: _237  and  _238
REMARK  101  A    between atoms: _243  and  _245
REMARK  102  A    between atoms: _245  and  _246
REMARK  103  A    between atoms: _248  and  _250
REMARK  104  A    between atoms: _250  and  _251
REMARK  105  A    between atoms: _250  and  _253
REMARK  106  A    between atoms: _253  and  _254
REMARK  107  A    between atoms: _257  and  _259
REMARK  108  A    between atoms: _259  and  _260
REMARK  109  A    between atoms: _259  and  _262
REMARK  110  A    between atoms: _262  and  _263
REMARK  111  A    between atoms: _266  and  _268
REMARK  112  A    between atoms: _268  and  _269
REMARK  113  A    between atoms: _268  and  _271
REMARK  114  A    between atoms: _271  and  _272
REMARK  115  A    between atoms: _272  and  _273
REMARK  116  A    between atoms: _273  and  _274
REMARK  117  A    between atoms: _283  and  _285
REMARK  118  A    between atoms: _285  and  _286
REMARK  119  A    between atoms: _285  and  _288
REMARK  120  A    between atoms: _288  and  _289
REMARK  121  A    between atoms: _294  and  _296
REMARK  122  A    between atoms: _296  and  _297
REMARK  123  A    between atoms: _296  and  _299
REMARK  124  A    between atoms: _299  and  _300
REMARK  125  A    between atoms: _306  and  _308
REMARK  126  A    between atoms: _308  and  _309
REMARK  127  A    between atoms: _308  and  _311
REMARK  128  A    between atoms: _311  and  _312
REMARK  129  A    between atoms: _317  and  _319
REMARK  130  A    between atoms: _319  and  _320
REMARK  131  A    between atoms: _319  and  _322
REMARK  132  A    between atoms: _322  and  _323
REMARK  133  A    between atoms: _326  and  _328
REMARK  134  A    between atoms: _328  and  _329
REMARK  135  A    between atoms: _332  and  _334
REMARK  136  A    between atoms: _334  and  _335
REMARK  137  A    between atoms: _338  and  _340
REMARK  138  A    between atoms: _340  and  _341
REMARK  139  A    between atoms: _340  and  _343
REMARK  140  A    between atoms: _343  and  _344
REMARK  141  A    between atoms: _344  and  _345
REMARK  142  A    between atoms: _345  and  _346
REMARK  143  A    between atoms: _355  and  _357
REMARK  144  A    between atoms: _357  and  _358
REMARK  145  A    between atoms: _357  and  _360
REMARK  146  A    between atoms: _360  and  _361
REMARK  147  A    between atoms: _366  and  _368
REMARK  148  A    between atoms: _368  and  _369
REMARK  149  A    between atoms: _368  and  _371
REMARK  150  A    between atoms: _373  and  _375
REMARK  151  A    between atoms: _375  and  _376
REMARK  152  A    between atoms: _375  and  _378
REMARK  153  A    between atoms: _378  and  _379
REMARK  154  A    between atoms: _379  and  _380
REMARK  155  A    between atoms: _382  and  _384
REMARK  156  A    between atoms: _384  and  _385
REMARK  157  A    between atoms: _384  and  _387
REMARK  158  A    between atoms: _387  and  _388
REMARK  159  A    between atoms: _391  and  _393
REMARK  160  A    between atoms: _393  and  _394
REMARK  161  A    between atoms: _393  and  _396
REMARK  162  A    between atoms: _396  and  _397
REMARK  163  A    between atoms: _400  and  _402
REMARK  164  A    between atoms: _402  and  _403
REMARK  165  A    between atoms: _402  and  _405
REMARK  166  A    between atoms: _405  and  _406
REMARK  167  A    between atoms: _406  and  _407
REMARK  168  A    between atoms: _407  and  _408
REMARK  169  A    between atoms: _408  and  _409
REMARK  170  A    between atoms: _413  and  _415
REMARK  171  A    between atoms: _415  and  _416
REMARK  172  A    between atoms: _415  and  _418
REMARK  173  A    between atoms: _421  and  _423
REMARK  174  A    between atoms: _423  and  _424
REMARK  175  A    between atoms: _427  and  _429
REMARK  176  A    between atoms: _429  and  _430
REMARK  177  A    between atoms: _429  and  _432
REMARK  178  A    between atoms: _432  and  _433
REMARK  179  A    between atoms: _436  and  _438
REMARK  180  A    between atoms: _438  and  _439
REMARK  181  A    between atoms: _438  and  _441
REMARK  182  A    between atoms: _441  and  _442
REMARK  183  A    between atoms: _448  and  _450
REMARK  184  A    between atoms: _450  and  _451
REMARK  185  A    between atoms: _450  and  _453
REMARK  186  A    between atoms: _453  and  _454
REMARK  187  A    between atoms: _457  and  _459
REMARK  188  A    between atoms: _459  and  _460
REMARK  189  A    between atoms: _463  and  _465
REMARK  190  A    between atoms: _465  and  _466
REMARK  191  A    between atoms: _465  and  _468
REMARK  192  A    between atoms: _468  and  _469
REMARK  193  A    between atoms: _469  and  _470
REMARK  194  A    between atoms: _470  and  _471
REMARK  195  A    between atoms: _480  and  _482
REMARK  196  A    between atoms: _482  and  _483
REMARK  197  A    between atoms: _482  and  _485
REMARK  198  A    between atoms: _485  and  _486
REMARK  199  A    between atoms: _489  and  _491
REMARK  200  A    between atoms: _491  and  _492
REMARK  201  A    between atoms: _491  and  _494
REMARK  202  A    between atoms: _494  and  _495
REMARK  203  A    between atoms: _495  and  _496
REMARK  204  A    between atoms: _498  and  _500
REMARK  205  A    between atoms: _500  and  _501
REMARK  206  A    between atoms: _500  and  _503
REMARK  207  A    between atoms: _503  and  _504
REMARK  208  A    between atoms: _509  and  _510
REMARK  209  A    between atoms: _512  and  _514
REMARK  210  A    between atoms: _514  and  _515
REMARK  211  A    between atoms: _514  and  _517
REMARK  212  A    between atoms: _517  and  _518
REMARK  213  A    between atoms: _521  and  _523
REMARK  214  A    between atoms: _523  and  _524
REMARK  215  A    between atoms: _523  and  _526
REMARK  216  A    between atoms: _526  and  _527
REMARK  217  A    between atoms: _532  and  _533
REMARK                            x       y       z     vdW  Elec       q    Type
REMARK                         _______ _______ _______ _____ _____    ______ ____
ROOT
ATOM      1  O   HOH     1      26.823   8.341  46.613  0.00  0.00    +0.000 OA
ENDROOT
TORSDOF 0
REMARK  Name = ../refined-set-2016/3zbx/3zbx_pocket.pdb
REMARK  217 active torsions:
REMARK  status: ('A' for Active; 'I' for Inactive)
REMARK    1  A    between atoms: _1  and  _3
REMARK    2  A    between atoms: _3  and  _4
REMARK    3  A    between atoms: _3  and  _6
REMARK    4  A    between atoms: _9  and  _11
REMARK    5  A    between atoms: _11  and  _12
REMARK    6  A    between atoms: _11  and  _14
REMARK    7  A    between atoms: _14  and  _15
REMARK    8  A    between atoms: _18  and  _20
REMARK    9  A    between atoms: _20  and  _21
REMARK   10  A    between atoms: _23  and  _25
REMARK   11  A    between atoms: _25  and  _26
REMARK   12  A    between atoms: _25  and  _28
REMARK   13  A    between atoms: _28  and  _29
REMARK   14  A    between atoms: _29  and  _30
REMARK   15  A    between atoms: _30  and  _31
REMARK   16  A    between atoms: _40  and  _42
REMARK   17  A    between atoms: _42  and  _43
REMARK   18  A    between atoms: _45  and  _47
REMARK   19  A    between atoms: _47  and  _48
REMARK   20  A    between atoms: _47  and  _50
REMARK   21  A    between atoms: _52  and  _54
REMARK   22  A    between atoms: _54  and  _55
REMARK   23  A    between atoms: _54  and  _57
REMARK   24  A    between atoms: _60  and  _62
REMARK   25  A    between atoms: _62  and  _63
REMARK   26  A    between atoms: _62  and  _65
REMARK   27  A    between atoms: _65  and  _66
REMARK   28  A    between atoms: _71  and  _72
REMARK   29  A    between atoms: _74  and  _76
REMARK   30  A    between atoms: _76  and  _77
REMARK   31  A    between atoms: _76  and  _79
REMARK   32  A    between atoms: _79  and  _80
REMARK   33  A    between atoms: _85  and  _87
REMARK   34  A    between atoms: _87  and  _88
REMARK   35  A    between atoms: _87  and  _90
REMARK   36  A    between atoms: _90  and  _91
REMARK   37  A    between atoms: _96  and  _98
REMARK   38  A    between atoms: _98  and  _99
REMARK   39  A    between atoms: _98  and  _101
REMARK   40  A    between atoms: _103  and  _105
REMARK   41  A    between atoms: _105  and  _106
REMARK   42  A    between atoms: _109  and  _111
REMARK   43  A    between atoms: _111  and  _112
REMARK   44  A    between atoms: _111  and  _114
REMARK   45  A    between atoms: _117  and  _119
REMARK   46  A    between atoms: _119  and  _120
REMARK   47  A    between atoms: _119  and  _122
REMARK   48  A    between atoms: _122  and  _123
REMARK   49  A    between atoms: _123  and  _124
REMARK   50  A    between atoms: _124  and  _125
REMARK   51  A    between atoms: _125  and  _126
REMARK   52  A    between atoms: _130  and  _132
REMARK   53  A    between atoms: _132  and  _133
REMARK   54  A    between atoms: _132  and  _135
REMARK   55  A    between atoms: _135  and  _136
REMARK   56  A    between atoms: _138  and  _140
REMARK   57  A    between atoms: _140  and  _141
REMARK   58  A    between atoms: _140  and  _143
REMARK   59  A    between atoms: _143  and  _144
REMARK   60  A    between atoms: _144  and  _145
REMARK   61  A    between atoms: _147  and  _149
REMARK   62  A    between atoms: _149  and  _150
REMARK   63  A    between atoms: _149  and  _152
REMARK   64  A    between atoms: _152  and  _153
REMARK   65  A    between atoms: _156  and  _158
REMARK   66  A    between atoms: _158  and  _159
REMARK   67  A    between atoms: _158  and  _161
REMARK   68  A    between atoms: _161  and  _162
REMARK   69  A    between atoms: _164  and  _166
REMARK   70  A    between atoms: _166  and  _167
REMARK   71  A    between atoms: _166  and  _169
REMARK   72  A    between atoms: _172  and  _174
REMARK   73  A    between atoms: _174  and  _175
REMARK   74  A    between atoms: _174  and  _177
REMARK   75  A    between atoms: _180  and  _182
REMARK   76  A    between atoms: _182  and  _183
REMARK   77  A    between atoms: _182  and  _185
REMARK   78  A    between atoms: _185  and  _186
REMARK   79  A    between atoms: _190  and  _191
REMARK   80  A    between atoms: _196  and  _198
REMARK   81  A    between atoms: _198  and  _199
REMARK   82  A    between atoms: _198  and  _201
REMARK   83  A    between atoms: _201  and  _202
REMARK   84  A    between atoms: _207  and  _208
REMARK   85  A    between atoms: _210  and  _212
REMARK   86  A    between atoms: _212  and  _213
REMARK   87  A    between atoms: _212  and  _215
REMARK   88  A    between atoms: _215  and  _216
REMARK   89  A    between atoms: _216  and  _217
REMARK   90  A    between atoms: _219  and  _221
REMARK   91  A    between atoms: _221  and  _222
REMARK   92  A    between atoms: _221  and  _224
REMARK   93  A    between atoms: _224  and  _225
REMARK   94  A    between atoms: _225  and  _226
REMARK   95  A    between atoms: _226  and  _227
REMARK   96  A    between atoms: _227  and  _228
REMARK   97  A    between atoms: _232  and  _234
REMARK   98  A    between atoms: _234  and  _235
REMARK   99  A    between atoms: _234  and  _237
REMARK  100  A    between atoms: _237  and  _238
REMARK  101  A    between atoms: _243  and  _245
REMARK  102  A    between atoms: _245  and  _246
REMARK  103  A    between atoms: _248  and  _250
REMARK  104  A    between atoms: _250  and  _251
REMARK  105  A    between atoms: _250  and  _253
REMARK  106  A    between atoms: _253  and  _254
REMARK  107  A    between atoms: _257  and  _259
REMARK  108  A    between atoms: _259  and  _260
REMARK  109  A    between atoms: _259  and  _262
REMARK  110  A    between atoms: _262  and  _263
REMARK  111  A    between atoms: _266  and  _268
REMARK  112  A    between atoms: _268  and  _269
REMARK  113  A    between atoms: _268  and  _271
REMARK  114  A    between atoms: _271  and  _272
REMARK  115  A    between atoms: _272  and  _273
REMARK  116  A    between atoms: _273  and  _274
REMARK  117  A    between atoms: _283  and  _285
REMARK  118  A    between atoms: _285  and  _286
REMARK  119  A    between atoms: _285  and  _288
REMARK  120  A    between atoms: _288  and  _289
REMARK  121  A    between atoms: _294  and  _296
REMARK  122  A    between atoms: _296  and  _297
REMARK  123  A    between atoms: _296  and  _299
REMARK  124  A    between atoms: _299  and  _300
REMARK  125  A    between atoms: _306  and  _308
REMARK  126  A    between atoms: _308  and  _309
REMARK  127  A    between atoms: _308  and  _311
REMARK  128  A    between atoms: _311  and  _312
REMARK  129  A    between atoms: _317  and  _319
REMARK  130  A    between atoms: _319  and  _320
REMARK  131  A    between atoms: _319  and  _322
REMARK  132  A    between atoms: _322  and  _323
REMARK  133  A    between atoms: _326  and  _328
REMARK  134  A    between atoms: _328  and  _329
REMARK  135  A    between atoms: _332  and  _334
REMARK  136  A    between atoms: _334  and  _335
REMARK  137  A    between atoms: _338  and  _340
REMARK  138  A    between atoms: _340  and  _341
REMARK  139  A    between atoms: _340  and  _343
REMARK  140  A    between atoms: _343  and  _344
REMARK  141  A    between atoms: _344  and  _345
REMARK  142  A    between atoms: _345  and  _346
REMARK  143  A    between atoms: _355  and  _357
REMARK  144  A    between atoms: _357  and  _358
REMARK  145  A    between atoms: _357  and  _360
REMARK  146  A    between atoms: _360  and  _361
REMARK  147  A    between atoms: _366  and  _368
REMARK  148  A    between atoms: _368  and  _369
REMARK  149  A    between atoms: _368  and  _371
REMARK  150  A    between atoms: _373  and  _375
REMARK  151  A    between atoms: _375  and  _376
REMARK  152  A    between atoms: _375  and  _378
REMARK  153  A    between atoms: _378  and  _379
REMARK  154  A    between atoms: _379  and  _380
REMARK  155  A    between atoms: _382  and  _384
REMARK  156  A    between atoms: _384  and  _385
REMARK  157  A    between atoms: _384  and  _387
REMARK  158  A    between atoms: _387  and  _388
REMARK  159  A    between atoms: _391  and  _393
REMARK  160  A    between atoms: _393  and  _394
REMARK  161  A    between atoms: _393  and  _396
REMARK  162  A    between atoms: _396  and  _397
REMARK  163  A    between atoms: _400  and  _402
REMARK  164  A    between atoms: _402  and  _403
REMARK  165  A    between atoms: _402  and  _405
REMARK  166  A    between atoms: _405  and  _406
REMARK  167  A    between atoms: _406  and  _407
REMARK  168  A    between atoms: _407  and  _408
REMARK  169  A    between atoms: _408  and  _409
REMARK  170  A    between atoms: _413  and  _415
REMARK  171  A    between atoms: _415  and  _416
REMARK  172  A    between atoms: _415  and  _418
REMARK  173  A    between atoms: _421  and  _423
REMARK  174  A    between atoms: _423  and  _424
REMARK  175  A    between atoms: _427  and  _429
REMARK  176  A    between atoms: _429  and  _430
REMARK  177  A    between atoms: _429  and  _432
REMARK  178  A    between atoms: _432  and  _433
REMARK  179  A    between atoms: _436  and  _438
REMARK  180  A    between atoms: _438  and  _439
REMARK  181  A    between atoms: _438  and  _441
REMARK  182  A    between atoms: _441  and  _442
REMARK  183  A    between atoms: _448  and  _450
REMARK  184  A    between atoms: _450  and  _451
REMARK  185  A    between atoms: _450  and  _453
REMARK  186  A    between atoms: _453  and  _454
REMARK  187  A    between atoms: _457  and  _459
REMARK  188  A    between atoms: _459  and  _460
REMARK  189  A    between atoms: _463  and  _465
REMARK  190  A    between atoms: _465  and  _466
REMARK  191  A    between atoms: _465  and  _468
REMARK  192  A    between atoms: _468  and  _469
REMARK  193  A    between atoms: _469  and  _470
REMARK  194  A    between atoms: _470  and  _471
REMARK  195  A    between atoms: _480  and  _482
REMARK  196  A    between atoms: _482  and  _483
REMARK  197  A    between atoms: _482  and  _485
REMARK  198  A    between atoms: _485  and  _486
REMARK  199  A    between atoms: _489  and  _491
REMARK  200  A    between atoms: _491  and  _492
REMARK  201  A    between atoms: _491  and  _494
REMARK  202  A    between atoms: _494  and  _495
REMARK  203  A    between atoms: _495  and  _496
REMARK  204  A    between atoms: _498  and  _500
REMARK  205  A    between atoms: _500  and  _501
REMARK  206  A    between atoms: _500  and  _503
REMARK  207  A    between atoms: _503  and  _504
REMARK  208  A    between atoms: _509  and  _510
REMARK  209  A    between atoms: _512  and  _514
REMARK  210  A    between atoms: _514  and  _515
REMARK  211  A    between atoms: _514  and  _517
REMARK  212  A    between atoms: _517  and  _518
REMARK  213  A    between atoms: _521  and  _523
REMARK  214  A    between atoms: _523  and  _524
REMARK  215  A    between atoms: _523  and  _526
REMARK  216  A    between atoms: _526  and  _527
REMARK  217  A    between atoms: _532  and  _533
REMARK                            x       y       z     vdW  Elec       q    Type
REMARK                         _______ _______ _______ _____ _____    ______ ____
ROOT
ATOM      1  O   HOH     1      26.910  10.607  45.306  0.00  0.00    +0.000 OA
ENDROOT
TORSDOF 0
REMARK  Name = ../refined-set-2016/3zbx/3zbx_pocket.pdb
REMARK  217 active torsions:
REMARK  status: ('A' for Active; 'I' for Inactive)
REMARK    1  A    between atoms: _1  and  _3
REMARK    2  A    between atoms: _3  and  _4
REMARK    3  A    between atoms: _3  and  _6
REMARK    4  A    between atoms: _9  and  _11
REMARK    5  A    between atoms: _11  and  _12
REMARK    6  A    between atoms: _11  and  _14
REMARK    7  A    between atoms: _14  and  _15
REMARK    8  A    between atoms: _18  and  _20
REMARK    9  A    between atoms: _20  and  _21
REMARK   10  A    between atoms: _23  and  _25
REMARK   11  A    between atoms: _25  and  _26
REMARK   12  A    between atoms: _25  and  _28
REMARK   13  A    between atoms: _28  and  _29
REMARK   14  A    between atoms: _29  and  _30
REMARK   15  A    between atoms: _30  and  _31
REMARK   16  A    between atoms: _40  and  _42
REMARK   17  A    between atoms: _42  and  _43
REMARK   18  A    between atoms: _45  and  _47
REMARK   19  A    between atoms: _47  and  _48
REMARK   20  A    between atoms: _47  and  _50
REMARK   21  A    between atoms: _52  and  _54
REMARK   22  A    between atoms: _54  and  _55
REMARK   23  A    between atoms: _54  and  _57
REMARK   24  A    between atoms: _60  and  _62
REMARK   25  A    between atoms: _62  and  _63
REMARK   26  A    between atoms: _62  and  _65
REMARK   27  A    between atoms: _65  and  _66
REMARK   28  A    between atoms: _71  and  _72
REMARK   29  A    between atoms: _74  and  _76
REMARK   30  A    between atoms: _76  and  _77
REMARK   31  A    between atoms: _76  and  _79
REMARK   32  A    between atoms: _79  and  _80
REMARK   33  A    between atoms: _85  and  _87
REMARK   34  A    between atoms: _87  and  _88
REMARK   35  A    between atoms: _87  and  _90
REMARK   36  A    between atoms: _90  and  _91
REMARK   37  A    between atoms: _96  and  _98
REMARK   38  A    between atoms: _98  and  _99
REMARK   39  A    between atoms: _98  and  _101
REMARK   40  A    between atoms: _103  and  _105
REMARK   41  A    between atoms: _105  and  _106
REMARK   42  A    between atoms: _109  and  _111
REMARK   43  A    between atoms: _111  and  _112
REMARK   44  A    between atoms: _111  and  _114
REMARK   45  A    between atoms: _117  and  _119
REMARK   46  A    between atoms: _119  and  _120
REMARK   47  A    between atoms: _119  and  _122
REMARK   48  A    between atoms: _122  and  _123
REMARK   49  A    between atoms: _123  and  _124
REMARK   50  A    between atoms: _124  and  _125
REMARK   51  A    between atoms: _125  and  _126
REMARK   52  A    between atoms: _130  and  _132
REMARK   53  A    between atoms: _132  and  _133
REMARK   54  A    between atoms: _132  and  _135
REMARK   55  A    between atoms: _135  and  _136
REMARK   56  A    between atoms: _138  and  _140
REMARK   57  A    between atoms: _140  and  _141
REMARK   58  A    between atoms: _140  and  _143
REMARK   59  A    between atoms: _143  and  _144
REMARK   60  A    between atoms: _144  and  _145
REMARK   61  A    between atoms: _147  and  _149
REMARK   62  A    between atoms: _149  and  _150
REMARK   63  A    between atoms: _149  and  _152
REMARK   64  A    between atoms: _152  and  _153
REMARK   65  A    between atoms: _156  and  _158
REMARK   66  A    between atoms: _158  and  _159
REMARK   67  A    between atoms: _158  and  _161
REMARK   68  A    between atoms: _161  and  _162
REMARK   69  A    between atoms: _164  and  _166
REMARK   70  A    between atoms: _166  and  _167
REMARK   71  A    between atoms: _166  and  _169
REMARK   72  A    between atoms: _172  and  _174
REMARK   73  A    between atoms: _174  and  _175
REMARK   74  A    between atoms: _174  and  _177
REMARK   75  A    between atoms: _180  and  _182
REMARK   76  A    between atoms: _182  and  _183
REMARK   77  A    between atoms: _182  and  _185
REMARK   78  A    between atoms: _185  and  _186
REMARK   79  A    between atoms: _190  and  _191
REMARK   80  A    between atoms: _196  and  _198
REMARK   81  A    between atoms: _198  and  _199
REMARK   82  A    between atoms: _198  and  _201
REMARK   83  A    between atoms: _201  and  _202
REMARK   84  A    between atoms: _207  and  _208
REMARK   85  A    between atoms: _210  and  _212
REMARK   86  A    between atoms: _212  and  _213
REMARK   87  A    between atoms: _212  and  _215
REMARK   88  A    between atoms: _215  and  _216
REMARK   89  A    between atoms: _216  and  _217
REMARK   90  A    between atoms: _219  and  _221
REMARK   91  A    between atoms: _221  and  _222
REMARK   92  A    between atoms: _221  and  _224
REMARK   93  A    between atoms: _224  and  _225
REMARK   94  A    between atoms: _225  and  _226
REMARK   95  A    between atoms: _226  and  _227
REMARK   96  A    between atoms: _227  and  _228
REMARK   97  A    between atoms: _232  and  _234
REMARK   98  A    between atoms: _234  and  _235
REMARK   99  A    between atoms: _234  and  _237
REMARK  100  A    between atoms: _237  and  _238
REMARK  101  A    between atoms: _243  and  _245
REMARK  102  A    between atoms: _245  and  _246
REMARK  103  A    between atoms: _248  and  _250
REMARK  104  A    between atoms: _250  and  _251
REMARK  105  A    between atoms: _250  and  _253
REMARK  106  A    between atoms: _253  and  _254
REMARK  107  A    between atoms: _257  and  _259
REMARK  108  A    between atoms: _259  and  _260
REMARK  109  A    between atoms: _259  and  _262
REMARK  110  A    between atoms: _262  and  _263
REMARK  111  A    between atoms: _266  and  _268
REMARK  112  A    between atoms: _268  and  _269
REMARK  113  A    between atoms: _268  and  _271
REMARK  114  A    between atoms: _271  and  _272
REMARK  115  A    between atoms: _272  and  _273
REMARK  116  A    between atoms: _273  and  _274
REMARK  117  A    between atoms: _283  and  _285
REMARK  118  A    between atoms: _285  and  _286
REMARK  119  A    between atoms: _285  and  _288
REMARK  120  A    between atoms: _288  and  _289
REMARK  121  A    between atoms: _294  and  _296
REMARK  122  A    between atoms: _296  and  _297
REMARK  123  A    between atoms: _296  and  _299
REMARK  124  A    between atoms: _299  and  _300
REMARK  125  A    between atoms: _306  and  _308
REMARK  126  A    between atoms: _308  and  _309
REMARK  127  A    between atoms: _308  and  _311
REMARK  128  A    between atoms: _311  and  _312
REMARK  129  A    between atoms: _317  and  _319
REMARK  130  A    between atoms: _319  and  _320
REMARK  131  A    between atoms: _319  and  _322
REMARK  132  A    between atoms: _322  and  _323
REMARK  133  A    between atoms: _326  and  _328
REMARK  134  A    between atoms: _328  and  _329
REMARK  135  A    between atoms: _332  and  _334
REMARK  136  A    between atoms: _334  and  _335
REMARK  137  A    between atoms: _338  and  _340
REMARK  138  A    between atoms: _340  and  _341
REMARK  139  A    between atoms: _340  and  _343
REMARK  140  A    between atoms: _343  and  _344
REMARK  141  A    between atoms: _344  and  _345
REMARK  142  A    between atoms: _345  and  _346
REMARK  143  A    between atoms: _355  and  _357
REMARK  144  A    between atoms: _357  and  _358
REMARK  145  A    between atoms: _357  and  _360
REMARK  146  A    between atoms: _360  and  _361
REMARK  147  A    between atoms: _366  and  _368
REMARK  148  A    between atoms: _368  and  _369
REMARK  149  A    between atoms: _368  and  _371
REMARK  150  A    between atoms: _373  and  _375
REMARK  151  A    between atoms: _375  and  _376
REMARK  152  A    between atoms: _375  and  _378
REMARK  153  A    between atoms: _378  and  _379
REMARK  154  A    between atoms: _379  and  _380
REMARK  155  A    between atoms: _382  and  _384
REMARK  156  A    between atoms: _384  and  _385
REMARK  157  A    between atoms: _384  and  _387
REMARK  158  A    between atoms: _387  and  _388
REMARK  159  A    between atoms: _391  and  _393
REMARK  160  A    between atoms: _393  and  _394
REMARK  161  A    between atoms: _393  and  _396
REMARK  162  A    between atoms: _396  and  _397
REMARK  163  A    between atoms: _400  and  _402
REMARK  164  A    between atoms: _402  and  _403
REMARK  165  A    between atoms: _402  and  _405
REMARK  166  A    between atoms: _405  and  _406
REMARK  167  A    between atoms: _406  and  _407
REMARK  168  A    between atoms: _407  and  _408
REMARK  169  A    between atoms: _408  and  _409
REMARK  170  A    between atoms: _413  and  _415
REMARK  171  A    between atoms: _415  and  _416
REMARK  172  A    between atoms: _415  and  _418
REMARK  173  A    between atoms: _421  and  _423
REMARK  174  A    between atoms: _423  and  _424
REMARK  175  A    between atoms: _427  and  _429
REMARK  176  A    between atoms: _429  and  _430
REMARK  177  A    between atoms: _429  and  _432
REMARK  178  A    between atoms: _432  and  _433
REMARK  179  A    between atoms: _436  and  _438
REMARK  180  A    between atoms: _438  and  _439
REMARK  181  A    between atoms: _438  and  _441
REMARK  182  A    between atoms: _441  and  _442
REMARK  183  A    between atoms: _448  and  _450
REMARK  184  A    between atoms: _450  and  _451
REMARK  185  A    between atoms: _450  and  _453
REMARK  186  A    between atoms: _453  and  _454
REMARK  187  A    between atoms: _457  and  _459
REMARK  188  A    between atoms: _459  and  _460
REMARK  189  A    between atoms: _463  and  _465
REMARK  190  A    between atoms: _465  and  _466
REMARK  191  A    between atoms: _465  and  _468
REMARK  192  A    between atoms: _468  and  _469
REMARK  193  A    between atoms: _469  and  _470
REMARK  194  A    between atoms: _470  and  _471
REMARK  195  A    between atoms: _480  and  _482
REMARK  196  A    between atoms: _482  and  _483
REMARK  197  A    between atoms: _482  and  _485
REMARK  198  A    between atoms: _485  and  _486
REMARK  199  A    between atoms: _489  and  _491
REMARK  200  A    between atoms: _491  and  _492
REMARK  201  A    between atoms: _491  and  _494
REMARK  202  A    between atoms: _494  and  _495
REMARK  203  A    between atoms: _495  and  _496
REMARK  204  A    between atoms: _498  and  _500
REMARK  205  A    between atoms: _500  and  _501
REMARK  206  A    between atoms: _500  and  _503
REMARK  207  A    between atoms: _503  and  _504
REMARK  208  A    between atoms: _509  and  _510
REMARK  209  A    between atoms: _512  and  _514
REMARK  210  A    between atoms: _514  and  _515
REMARK  211  A    between atoms: _514  and  _517
REMARK  212  A    between atoms: _517  and  _518
REMARK  213  A    between atoms: _521  and  _523
REMARK  214  A    between atoms: _523  and  _524
REMARK  215  A    between atoms: _523  and  _526
REMARK  216  A    between atoms: _526  and  _527
REMARK  217  A    between atoms: _532  and  _533
REMARK                            x       y       z     vdW  Elec       q    Type
REMARK                         _______ _______ _______ _____ _____    ______ ____
ROOT
ATOM      1  O   HOH     1      25.107  16.422  45.689  0.00  0.00    +0.000 OA
ENDROOT
TORSDOF 0
REMARK  Name = ../refined-set-2016/3zbx/3zbx_pocket.pdb
REMARK  217 active torsions:
REMARK  status: ('A' for Active; 'I' for Inactive)
REMARK    1  A    between atoms: _1  and  _3
REMARK    2  A    between atoms: _3  and  _4
REMARK    3  A    between atoms: _3  and  _6
REMARK    4  A    between atoms: _9  and  _11
REMARK    5  A    between atoms: _11  and  _12
REMARK    6  A    between atoms: _11  and  _14
REMARK    7  A    between atoms: _14  and  _15
REMARK    8  A    between atoms: _18  and  _20
REMARK    9  A    between atoms: _20  and  _21
REMARK   10  A    between atoms: _23  and  _25
REMARK   11  A    between atoms: _25  and  _26
REMARK   12  A    between atoms: _25  and  _28
REMARK   13  A    between atoms: _28  and  _29
REMARK   14  A    between atoms: _29  and  _30
REMARK   15  A    between atoms: _30  and  _31
REMARK   16  A    between atoms: _40  and  _42
REMARK   17  A    between atoms: _42  and  _43
REMARK   18  A    between atoms: _45  and  _47
REMARK   19  A    between atoms: _47  and  _48
REMARK   20  A    between atoms: _47  and  _50
REMARK   21  A    between atoms: _52  and  _54
REMARK   22  A    between atoms: _54  and  _55
REMARK   23  A    between atoms: _54  and  _57
REMARK   24  A    between atoms: _60  and  _62
REMARK   25  A    between atoms: _62  and  _63
REMARK   26  A    between atoms: _62  and  _65
REMARK   27  A    between atoms: _65  and  _66
REMARK   28  A    between atoms: _71  and  _72
REMARK   29  A    between atoms: _74  and  _76
REMARK   30  A    between atoms: _76  and  _77
REMARK   31  A    between atoms: _76  and  _79
REMARK   32  A    between atoms: _79  and  _80
REMARK   33  A    between atoms: _85  and  _87
REMARK   34  A    between atoms: _87  and  _88
REMARK   35  A    between atoms: _87  and  _90
REMARK   36  A    between atoms: _90  and  _91
REMARK   37  A    between atoms: _96  and  _98
REMARK   38  A    between atoms: _98  and  _99
REMARK   39  A    between atoms: _98  and  _101
REMARK   40  A    between atoms: _103  and  _105
REMARK   41  A    between atoms: _105  and  _106
REMARK   42  A    between atoms: _109  and  _111
REMARK   43  A    between atoms: _111  and  _112
REMARK   44  A    between atoms: _111  and  _114
REMARK   45  A    between atoms: _117  and  _119
REMARK   46  A    between atoms: _119  and  _120
REMARK   47  A    between atoms: _119  and  _122
REMARK   48  A    between atoms: _122  and  _123
REMARK   49  A    between atoms: _123  and  _124
REMARK   50  A    between atoms: _124  and  _125
REMARK   51  A    between atoms: _125  and  _126
REMARK   52  A    between atoms: _130  and  _132
REMARK   53  A    between atoms: _132  and  _133
REMARK   54  A    between atoms: _132  and  _135
REMARK   55  A    between atoms: _135  and  _136
REMARK   56  A    between atoms: _138  and  _140
REMARK   57  A    between atoms: _140  and  _141
REMARK   58  A    between atoms: _140  and  _143
REMARK   59  A    between atoms: _143  and  _144
REMARK   60  A    between atoms: _144  and  _145
REMARK   61  A    between atoms: _147  and  _149
REMARK   62  A    between atoms: _149  and  _150
REMARK   63  A    between atoms: _149  and  _152
REMARK   64  A    between atoms: _152  and  _153
REMARK   65  A    between atoms: _156  and  _158
REMARK   66  A    between atoms: _158  and  _159
REMARK   67  A    between atoms: _158  and  _161
REMARK   68  A    between atoms: _161  and  _162
REMARK   69  A    between atoms: _164  and  _166
REMARK   70  A    between atoms: _166  and  _167
REMARK   71  A    between atoms: _166  and  _169
REMARK   72  A    between atoms: _172  and  _174
REMARK   73  A    between atoms: _174  and  _175
REMARK   74  A    between atoms: _174  and  _177
REMARK   75  A    between atoms: _180  and  _182
REMARK   76  A    between atoms: _182  and  _183
REMARK   77  A    between atoms: _182  and  _185
REMARK   78  A    between atoms: _185  and  _186
REMARK   79  A    between atoms: _190  and  _191
REMARK   80  A    between atoms: _196  and  _198
REMARK   81  A    between atoms: _198  and  _199
REMARK   82  A    between atoms: _198  and  _201
REMARK   83  A    between atoms: _201  and  _202
REMARK   84  A    between atoms: _207  and  _208
REMARK   85  A    between atoms: _210  and  _212
REMARK   86  A    between atoms: _212  and  _213
REMARK   87  A    between atoms: _212  and  _215
REMARK   88  A    between atoms: _215  and  _216
REMARK   89  A    between atoms: _216  and  _217
REMARK   90  A    between atoms: _219  and  _221
REMARK   91  A    between atoms: _221  and  _222
REMARK   92  A    between atoms: _221  and  _224
REMARK   93  A    between atoms: _224  and  _225
REMARK   94  A    between atoms: _225  and  _226
REMARK   95  A    between atoms: _226  and  _227
REMARK   96  A    between atoms: _227  and  _228
REMARK   97  A    between atoms: _232  and  _234
REMARK   98  A    between atoms: _234  and  _235
REMARK   99  A    between atoms: _234  and  _237
REMARK  100  A    between atoms: _237  and  _238
REMARK  101  A    between atoms: _243  and  _245
REMARK  102  A    between atoms: _245  and  _246
REMARK  103  A    between atoms: _248  and  _250
REMARK  104  A    between atoms: _250  and  _251
REMARK  105  A    between atoms: _250  and  _253
REMARK  106  A    between atoms: _253  and  _254
REMARK  107  A    between atoms: _257  and  _259
REMARK  108  A    between atoms: _259  and  _260
REMARK  109  A    between atoms: _259  and  _262
REMARK  110  A    between atoms: _262  and  _263
REMARK  111  A    between atoms: _266  and  _268
REMARK  112  A    between atoms: _268  and  _269
REMARK  113  A    between atoms: _268  and  _271
REMARK  114  A    between atoms: _271  and  _272
REMARK  115  A    between atoms: _272  and  _273
REMARK  116  A    between atoms: _273  and  _274
REMARK  117  A    between atoms: _283  and  _285
REMARK  118  A    between atoms: _285  and  _286
REMARK  119  A    between atoms: _285  and  _288
REMARK  120  A    between atoms: _288  and  _289
REMARK  121  A    between atoms: _294  and  _296
REMARK  122  A    between atoms: _296  and  _297
REMARK  123  A    between atoms: _296  and  _299
REMARK  124  A    between atoms: _299  and  _300
REMARK  125  A    between atoms: _306  and  _308
REMARK  126  A    between atoms: _308  and  _309
REMARK  127  A    between atoms: _308  and  _311
REMARK  128  A    between atoms: _311  and  _312
REMARK  129  A    between atoms: _317  and  _319
REMARK  130  A    between atoms: _319  and  _320
REMARK  131  A    between atoms: _319  and  _322
REMARK  132  A    between atoms: _322  and  _323
REMARK  133  A    between atoms: _326  and  _328
REMARK  134  A    between atoms: _328  and  _329
REMARK  135  A    between atoms: _332  and  _334
REMARK  136  A    between atoms: _334  and  _335
REMARK  137  A    between atoms: _338  and  _340
REMARK  138  A    between atoms: _340  and  _341
REMARK  139  A    between atoms: _340  and  _343
REMARK  140  A    between atoms: _343  and  _344
REMARK  141  A    between atoms: _344  and  _345
REMARK  142  A    between atoms: _345  and  _346
REMARK  143  A    between atoms: _355  and  _357
REMARK  144  A    between atoms: _357  and  _358
REMARK  145  A    between atoms: _357  and  _360
REMARK  146  A    between atoms: _360  and  _361
REMARK  147  A    between atoms: _366  and  _368
REMARK  148  A    between atoms: _368  and  _369
REMARK  149  A    between atoms: _368  and  _371
REMARK  150  A    between atoms: _373  and  _375
REMARK  151  A    between atoms: _375  and  _376
REMARK  152  A    between atoms: _375  and  _378
REMARK  153  A    between atoms: _378  and  _379
REMARK  154  A    between atoms: _379  and  _380
REMARK  155  A    between atoms: _382  and  _384
REMARK  156  A    between atoms: _384  and  _385
REMARK  157  A    between atoms: _384  and  _387
REMARK  158  A    between atoms: _387  and  _388
REMARK  159  A    between atoms: _391  and  _393
REMARK  160  A    between atoms: _393  and  _394
REMARK  161  A    between atoms: _393  and  _396
REMARK  162  A    between atoms: _396  and  _397
REMARK  163  A    between atoms: _400  and  _402
REMARK  164  A    between atoms: _402  and  _403
REMARK  165  A    between atoms: _402  and  _405
REMARK  166  A    between atoms: _405  and  _406
REMARK  167  A    between atoms: _406  and  _407
REMARK  168  A    between atoms: _407  and  _408
REMARK  169  A    between atoms: _408  and  _409
REMARK  170  A    between atoms: _413  and  _415
REMARK  171  A    between atoms: _415  and  _416
REMARK  172  A    between atoms: _415  and  _418
REMARK  173  A    between atoms: _421  and  _423
REMARK  174  A    between atoms: _423  and  _424
REMARK  175  A    between atoms: _427  and  _429
REMARK  176  A    between atoms: _429  and  _430
REMARK  177  A    between atoms: _429  and  _432
REMARK  178  A    between atoms: _432  and  _433
REMARK  179  A    between atoms: _436  and  _438
REMARK  180  A    between atoms: _438  and  _439
REMARK  181  A    between atoms: _438  and  _441
REMARK  182  A    between atoms: _441  and  _442
REMARK  183  A    between atoms: _448  and  _450
REMARK  184  A    between atoms: _450  and  _451
REMARK  185  A    between atoms: _450  and  _453
REMARK  186  A    between atoms: _453  and  _454
REMARK  187  A    between atoms: _457  and  _459
REMARK  188  A    between atoms: _459  and  _460
REMARK  189  A    between atoms: _463  and  _465
REMARK  190  A    between atoms: _465  and  _466
REMARK  191  A    between atoms: _465  and  _468
REMARK  192  A    between atoms: _468  and  _469
REMARK  193  A    between atoms: _469  and  _470
REMARK  194  A    between atoms: _470  and  _471
REMARK  195  A    between atoms: _480  and  _482
REMARK  196  A    between atoms: _482  and  _483
REMARK  197  A    between atoms: _482  and  _485
REMARK  198  A    between atoms: _485  and  _486
REMARK  199  A    between atoms: _489  and  _491
REMARK  200  A    between atoms: _491  and  _492
REMARK  201  A    between atoms: _491  and  _494
REMARK  202  A    between atoms: _494  and  _495
REMARK  203  A    between atoms: _495  and  _496
REMARK  204  A    between atoms: _498  and  _500
REMARK  205  A    between atoms: _500  and  _501
REMARK  206  A    between atoms: _500  and  _503
REMARK  207  A    between atoms: _503  and  _504
REMARK  208  A    between atoms: _509  and  _510
REMARK  209  A    between atoms: _512  and  _514
REMARK  210  A    between atoms: _514  and  _515
REMARK  211  A    between atoms: _514  and  _517
REMARK  212  A    between atoms: _517  and  _518
REMARK  213  A    between atoms: _521  and  _523
REMARK  214  A    between atoms: _523  and  _524
REMARK  215  A    between atoms: _523  and  _526
REMARK  216  A    between atoms: _526  and  _527
REMARK  217  A    between atoms: _532  and  _533
REMARK                            x       y       z     vdW  Elec       q    Type
REMARK                         _______ _______ _______ _____ _____    ______ ____
ROOT
ATOM      1  O   HOH     1      22.527  13.280  45.885  0.00  0.00    +0.000 OA
ENDROOT
TORSDOF 0
REMARK  Name = ../refined-set-2016/3zbx/3zbx_pocket.pdb
REMARK  217 active torsions:
REMARK  status: ('A' for Active; 'I' for Inactive)
REMARK    1  A    between atoms: _1  and  _3
REMARK    2  A    between atoms: _3  and  _4
REMARK    3  A    between atoms: _3  and  _6
REMARK    4  A    between atoms: _9  and  _11
REMARK    5  A    between atoms: _11  and  _12
REMARK    6  A    between atoms: _11  and  _14
REMARK    7  A    between atoms: _14  and  _15
REMARK    8  A    between atoms: _18  and  _20
REMARK    9  A    between atoms: _20  and  _21
REMARK   10  A    between atoms: _23  and  _25
REMARK   11  A    between atoms: _25  and  _26
REMARK   12  A    between atoms: _25  and  _28
REMARK   13  A    between atoms: _28  and  _29
REMARK   14  A    between atoms: _29  and  _30
REMARK   15  A    between atoms: _30  and  _31
REMARK   16  A    between atoms: _40  and  _42
REMARK   17  A    between atoms: _42  and  _43
REMARK   18  A    between atoms: _45  and  _47
REMARK   19  A    between atoms: _47  and  _48
REMARK   20  A    between atoms: _47  and  _50
REMARK   21  A    between atoms: _52  and  _54
REMARK   22  A    between atoms: _54  and  _55
REMARK   23  A    between atoms: _54  and  _57
REMARK   24  A    between atoms: _60  and  _62
REMARK   25  A    between atoms: _62  and  _63
REMARK   26  A    between atoms: _62  and  _65
REMARK   27  A    between atoms: _65  and  _66
REMARK   28  A    between atoms: _71  and  _72
REMARK   29  A    between atoms: _74  and  _76
REMARK   30  A    between atoms: _76  and  _77
REMARK   31  A    between atoms: _76  and  _79
REMARK   32  A    between atoms: _79  and  _80
REMARK   33  A    between atoms: _85  and  _87
REMARK   34  A    between atoms: _87  and  _88
REMARK   35  A    between atoms: _87  and  _90
REMARK   36  A    between atoms: _90  and  _91
REMARK   37  A    between atoms: _96  and  _98
REMARK   38  A    between atoms: _98  and  _99
REMARK   39  A    between atoms: _98  and  _101
REMARK   40  A    between atoms: _103  and  _105
REMARK   41  A    between atoms: _105  and  _106
REMARK   42  A    between atoms: _109  and  _111
REMARK   43  A    between atoms: _111  and  _112
REMARK   44  A    between atoms: _111  and  _114
REMARK   45  A    between atoms: _117  and  _119
REMARK   46  A    between atoms: _119  and  _120
REMARK   47  A    between atoms: _119  and  _122
REMARK   48  A    between atoms: _122  and  _123
REMARK   49  A    between atoms: _123  and  _124
REMARK   50  A    between atoms: _124  and  _125
REMARK   51  A    between atoms: _125  and  _126
REMARK   52  A    between atoms: _130  and  _132
REMARK   53  A    between atoms: _132  and  _133
REMARK   54  A    between atoms: _132  and  _135
REMARK   55  A    between atoms: _135  and  _136
REMARK   56  A    between atoms: _138  and  _140
REMARK   57  A    between atoms: _140  and  _141
REMARK   58  A    between atoms: _140  and  _143
REMARK   59  A    between atoms: _143  and  _144
REMARK   60  A    between atoms: _144  and  _145
REMARK   61  A    between atoms: _147  and  _149
REMARK   62  A    between atoms: _149  and  _150
REMARK   63  A    between atoms: _149  and  _152
REMARK   64  A    between atoms: _152  and  _153
REMARK   65  A    between atoms: _156  and  _158
REMARK   66  A    between atoms: _158  and  _159
REMARK   67  A    between atoms: _158  and  _161
REMARK   68  A    between atoms: _161  and  _162
REMARK   69  A    between atoms: _164  and  _166
REMARK   70  A    between atoms: _166  and  _167
REMARK   71  A    between atoms: _166  and  _169
REMARK   72  A    between atoms: _172  and  _174
REMARK   73  A    between atoms: _174  and  _175
REMARK   74  A    between atoms: _174  and  _177
REMARK   75  A    between atoms: _180  and  _182
REMARK   76  A    between atoms: _182  and  _183
REMARK   77  A    between atoms: _182  and  _185
REMARK   78  A    between atoms: _185  and  _186
REMARK   79  A    between atoms: _190  and  _191
REMARK   80  A    between atoms: _196  and  _198
REMARK   81  A    between atoms: _198  and  _199
REMARK   82  A    between atoms: _198  and  _201
REMARK   83  A    between atoms: _201  and  _202
REMARK   84  A    between atoms: _207  and  _208
REMARK   85  A    between atoms: _210  and  _212
REMARK   86  A    between atoms: _212  and  _213
REMARK   87  A    between atoms: _212  and  _215
REMARK   88  A    between atoms: _215  and  _216
REMARK   89  A    between atoms: _216  and  _217
REMARK   90  A    between atoms: _219  and  _221
REMARK   91  A    between atoms: _221  and  _222
REMARK   92  A    between atoms: _221  and  _224
REMARK   93  A    between atoms: _224  and  _225
REMARK   94  A    between atoms: _225  and  _226
REMARK   95  A    between atoms: _226  and  _227
REMARK   96  A    between atoms: _227  and  _228
REMARK   97  A    between atoms: _232  and  _234
REMARK   98  A    between atoms: _234  and  _235
REMARK   99  A    between atoms: _234  and  _237
REMARK  100  A    between atoms: _237  and  _238
REMARK  101  A    between atoms: _243  and  _245
REMARK  102  A    between atoms: _245  and  _246
REMARK  103  A    between atoms: _248  and  _250
REMARK  104  A    between atoms: _250  and  _251
REMARK  105  A    between atoms: _250  and  _253
REMARK  106  A    between atoms: _253  and  _254
REMARK  107  A    between atoms: _257  and  _259
REMARK  108  A    between atoms: _259  and  _260
REMARK  109  A    between atoms: _259  and  _262
REMARK  110  A    between atoms: _262  and  _263
REMARK  111  A    between atoms: _266  and  _268
REMARK  112  A    between atoms: _268  and  _269
REMARK  113  A    between atoms: _268  and  _271
REMARK  114  A    between atoms: _271  and  _272
REMARK  115  A    between atoms: _272  and  _273
REMARK  116  A    between atoms: _273  and  _274
REMARK  117  A    between atoms: _283  and  _285
REMARK  118  A    between atoms: _285  and  _286
REMARK  119  A    between atoms: _285  and  _288
REMARK  120  A    between atoms: _288  and  _289
REMARK  121  A    between atoms: _294  and  _296
REMARK  122  A    between atoms: _296  and  _297
REMARK  123  A    between atoms: _296  and  _299
REMARK  124  A    between atoms: _299  and  _300
REMARK  125  A    between atoms: _306  and  _308
REMARK  126  A    between atoms: _308  and  _309
REMARK  127  A    between atoms: _308  and  _311
REMARK  128  A    between atoms: _311  and  _312
REMARK  129  A    between atoms: _317  and  _319
REMARK  130  A    between atoms: _319  and  _320
REMARK  131  A    between atoms: _319  and  _322
REMARK  132  A    between atoms: _322  and  _323
REMARK  133  A    between atoms: _326  and  _328
REMARK  134  A    between atoms: _328  and  _329
REMARK  135  A    between atoms: _332  and  _334
REMARK  136  A    between atoms: _334  and  _335
REMARK  137  A    between atoms: _338  and  _340
REMARK  138  A    between atoms: _340  and  _341
REMARK  139  A    between atoms: _340  and  _343
REMARK  140  A    between atoms: _343  and  _344
REMARK  141  A    between atoms: _344  and  _345
REMARK  142  A    between atoms: _345  and  _346
REMARK  143  A    between atoms: _355  and  _357
REMARK  144  A    between atoms: _357  and  _358
REMARK  145  A    between atoms: _357  and  _360
REMARK  146  A    between atoms: _360  and  _361
REMARK  147  A    between atoms: _366  and  _368
REMARK  148  A    between atoms: _368  and  _369
REMARK  149  A    between atoms: _368  and  _371
REMARK  150  A    between atoms: _373  and  _375
REMARK  151  A    between atoms: _375  and  _376
REMARK  152  A    between atoms: _375  and  _378
REMARK  153  A    between atoms: _378  and  _379
REMARK  154  A    between atoms: _379  and  _380
REMARK  155  A    between atoms: _382  and  _384
REMARK  156  A    between atoms: _384  and  _385
REMARK  157  A    between atoms: _384  and  _387
REMARK  158  A    between atoms: _387  and  _388
REMARK  159  A    between atoms: _391  and  _393
REMARK  160  A    between atoms: _393  and  _394
REMARK  161  A    between atoms: _393  and  _396
REMARK  162  A    between atoms: _396  and  _397
REMARK  163  A    between atoms: _400  and  _402
REMARK  164  A    between atoms: _402  and  _403
REMARK  165  A    between atoms: _402  and  _405
REMARK  166  A    between atoms: _405  and  _406
REMARK  167  A    between atoms: _406  and  _407
REMARK  168  A    between atoms: _407  and  _408
REMARK  169  A    between atoms: _408  and  _409
REMARK  170  A    between atoms: _413  and  _415
REMARK  171  A    between atoms: _415  and  _416
REMARK  172  A    between atoms: _415  and  _418
REMARK  173  A    between atoms: _421  and  _423
REMARK  174  A    between atoms: _423  and  _424
REMARK  175  A    between atoms: _427  and  _429
REMARK  176  A    between atoms: _429  and  _430
REMARK  177  A    between atoms: _429  and  _432
REMARK  178  A    between atoms: _432  and  _433
REMARK  179  A    between atoms: _436  and  _438
REMARK  180  A    between atoms: _438  and  _439
REMARK  181  A    between atoms: _438  and  _441
REMARK  182  A    between atoms: _441  and  _442
REMARK  183  A    between atoms: _448  and  _450
REMARK  184  A    between atoms: _450  and  _451
REMARK  185  A    between atoms: _450  and  _453
REMARK  186  A    between atoms: _453  and  _454
REMARK  187  A    between atoms: _457  and  _459
REMARK  188  A    between atoms: _459  and  _460
REMARK  189  A    between atoms: _463  and  _465
REMARK  190  A    between atoms: _465  and  _466
REMARK  191  A    between atoms: _465  and  _468
REMARK  192  A    between atoms: _468  and  _469
REMARK  193  A    between atoms: _469  and  _470
REMARK  194  A    between atoms: _470  and  _471
REMARK  195  A    between atoms: _480  and  _482
REMARK  196  A    between atoms: _482  and  _483
REMARK  197  A    between atoms: _482  and  _485
REMARK  198  A    between atoms: _485  and  _486
REMARK  199  A    between atoms: _489  and  _491
REMARK  200  A    between atoms: _491  and  _492
REMARK  201  A    between atoms: _491  and  _494
REMARK  202  A    between atoms: _494  and  _495
REMARK  203  A    between atoms: _495  and  _496
REMARK  204  A    between atoms: _498  and  _500
REMARK  205  A    between atoms: _500  and  _501
REMARK  206  A    between atoms: _500  and  _503
REMARK  207  A    between atoms: _503  and  _504
REMARK  208  A    between atoms: _509  and  _510
REMARK  209  A    between atoms: _512  and  _514
REMARK  210  A    between atoms: _514  and  _515
REMARK  211  A    between atoms: _514  and  _517
REMARK  212  A    between atoms: _517  and  _518
REMARK  213  A    between atoms: _521  and  _523
REMARK  214  A    between atoms: _523  and  _524
REMARK  215  A    between atoms: _523  and  _526
REMARK  216  A    between atoms: _526  and  _527
REMARK  217  A    between atoms: _532  and  _533
REMARK                            x       y       z     vdW  Elec       q    Type
REMARK                         _______ _______ _______ _____ _____    ______ ____
ROOT
ATOM      1  O   HOH     1      17.742  17.368  45.805  0.00  0.00    +0.000 OA
ENDROOT
TORSDOF 0
REMARK  Name = ../refined-set-2016/3zbx/3zbx_pocket.pdb
REMARK  217 active torsions:
REMARK  status: ('A' for Active; 'I' for Inactive)
REMARK    1  A    between atoms: _1  and  _3
REMARK    2  A    between atoms: _3  and  _4
REMARK    3  A    between atoms: _3  and  _6
REMARK    4  A    between atoms: _9  and  _11
REMARK    5  A    between atoms: _11  and  _12
REMARK    6  A    between atoms: _11  and  _14
REMARK    7  A    between atoms: _14  and  _15
REMARK    8  A    between atoms: _18  and  _20
REMARK    9  A    between atoms: _20  and  _21
REMARK   10  A    between atoms: _23  and  _25
REMARK   11  A    between atoms: _25  and  _26
REMARK   12  A    between atoms: _25  and  _28
REMARK   13  A    between atoms: _28  and  _29
REMARK   14  A    between atoms: _29  and  _30
REMARK   15  A    between atoms: _30  and  _31
REMARK   16  A    between atoms: _40  and  _42
REMARK   17  A    between atoms: _42  and  _43
REMARK   18  A    between atoms: _45  and  _47
REMARK   19  A    between atoms: _47  and  _48
REMARK   20  A    between atoms: _47  and  _50
REMARK   21  A    between atoms: _52  and  _54
REMARK   22  A    between atoms: _54  and  _55
REMARK   23  A    between atoms: _54  and  _57
REMARK   24  A    between atoms: _60  and  _62
REMARK   25  A    between atoms: _62  and  _63
REMARK   26  A    between atoms: _62  and  _65
REMARK   27  A    between atoms: _65  and  _66
REMARK   28  A    between atoms: _71  and  _72
REMARK   29  A    between atoms: _74  and  _76
REMARK   30  A    between atoms: _76  and  _77
REMARK   31  A    between atoms: _76  and  _79
REMARK   32  A    between atoms: _79  and  _80
REMARK   33  A    between atoms: _85  and  _87
REMARK   34  A    between atoms: _87  and  _88
REMARK   35  A    between atoms: _87  and  _90
REMARK   36  A    between atoms: _90  and  _91
REMARK   37  A    between atoms: _96  and  _98
REMARK   38  A    between atoms: _98  and  _99
REMARK   39  A    between atoms: _98  and  _101
REMARK   40  A    between atoms: _103  and  _105
REMARK   41  A    between atoms: _105  and  _106
REMARK   42  A    between atoms: _109  and  _111
REMARK   43  A    between atoms: _111  and  _112
REMARK   44  A    between atoms: _111  and  _114
REMARK   45  A    between atoms: _117  and  _119
REMARK   46  A    between atoms: _119  and  _120
REMARK   47  A    between atoms: _119  and  _122
REMARK   48  A    between atoms: _122  and  _123
REMARK   49  A    between atoms: _123  and  _124
REMARK   50  A    between atoms: _124  and  _125
REMARK   51  A    between atoms: _125  and  _126
REMARK   52  A    between atoms: _130  and  _132
REMARK   53  A    between atoms: _132  and  _133
REMARK   54  A    between atoms: _132  and  _135
REMARK   55  A    between atoms: _135  and  _136
REMARK   56  A    between atoms: _138  and  _140
REMARK   57  A    between atoms: _140  and  _141
REMARK   58  A    between atoms: _140  and  _143
REMARK   59  A    between atoms: _143  and  _144
REMARK   60  A    between atoms: _144  and  _145
REMARK   61  A    between atoms: _147  and  _149
REMARK   62  A    between atoms: _149  and  _150
REMARK   63  A    between atoms: _149  and  _152
REMARK   64  A    between atoms: _152  and  _153
REMARK   65  A    between atoms: _156  and  _158
REMARK   66  A    between atoms: _158  and  _159
REMARK   67  A    between atoms: _158  and  _161
REMARK   68  A    between atoms: _161  and  _162
REMARK   69  A    between atoms: _164  and  _166
REMARK   70  A    between atoms: _166  and  _167
REMARK   71  A    between atoms: _166  and  _169
REMARK   72  A    between atoms: _172  and  _174
REMARK   73  A    between atoms: _174  and  _175
REMARK   74  A    between atoms: _174  and  _177
REMARK   75  A    between atoms: _180  and  _182
REMARK   76  A    between atoms: _182  and  _183
REMARK   77  A    between atoms: _182  and  _185
REMARK   78  A    between atoms: _185  and  _186
REMARK   79  A    between atoms: _190  and  _191
REMARK   80  A    between atoms: _196  and  _198
REMARK   81  A    between atoms: _198  and  _199
REMARK   82  A    between atoms: _198  and  _201
REMARK   83  A    between atoms: _201  and  _202
REMARK   84  A    between atoms: _207  and  _208
REMARK   85  A    between atoms: _210  and  _212
REMARK   86  A    between atoms: _212  and  _213
REMARK   87  A    between atoms: _212  and  _215
REMARK   88  A    between atoms: _215  and  _216
REMARK   89  A    between atoms: _216  and  _217
REMARK   90  A    between atoms: _219  and  _221
REMARK   91  A    between atoms: _221  and  _222
REMARK   92  A    between atoms: _221  and  _224
REMARK   93  A    between atoms: _224  and  _225
REMARK   94  A    between atoms: _225  and  _226
REMARK   95  A    between atoms: _226  and  _227
REMARK   96  A    between atoms: _227  and  _228
REMARK   97  A    between atoms: _232  and  _234
REMARK   98  A    between atoms: _234  and  _235
REMARK   99  A    between atoms: _234  and  _237
REMARK  100  A    between atoms: _237  and  _238
REMARK  101  A    between atoms: _243  and  _245
REMARK  102  A    between atoms: _245  and  _246
REMARK  103  A    between atoms: _248  and  _250
REMARK  104  A    between atoms: _250  and  _251
REMARK  105  A    between atoms: _250  and  _253
REMARK  106  A    between atoms: _253  and  _254
REMARK  107  A    between atoms: _257  and  _259
REMARK  108  A    between atoms: _259  and  _260
REMARK  109  A    between atoms: _259  and  _262
REMARK  110  A    between atoms: _262  and  _263
REMARK  111  A    between atoms: _266  and  _268
REMARK  112  A    between atoms: _268  and  _269
REMARK  113  A    between atoms: _268  and  _271
REMARK  114  A    between atoms: _271  and  _272
REMARK  115  A    between atoms: _272  and  _273
REMARK  116  A    between atoms: _273  and  _274
REMARK  117  A    between atoms: _283  and  _285
REMARK  118  A    between atoms: _285  and  _286
REMARK  119  A    between atoms: _285  and  _288
REMARK  120  A    between atoms: _288  and  _289
REMARK  121  A    between atoms: _294  and  _296
REMARK  122  A    between atoms: _296  and  _297
REMARK  123  A    between atoms: _296  and  _299
REMARK  124  A    between atoms: _299  and  _300
REMARK  125  A    between atoms: _306  and  _308
REMARK  126  A    between atoms: _308  and  _309
REMARK  127  A    between atoms: _308  and  _311
REMARK  128  A    between atoms: _311  and  _312
REMARK  129  A    between atoms: _317  and  _319
REMARK  130  A    between atoms: _319  and  _320
REMARK  131  A    between atoms: _319  and  _322
REMARK  132  A    between atoms: _322  and  _323
REMARK  133  A    between atoms: _326  and  _328
REMARK  134  A    between atoms: _328  and  _329
REMARK  135  A    between atoms: _332  and  _334
REMARK  136  A    between atoms: _334  and  _335
REMARK  137  A    between atoms: _338  and  _340
REMARK  138  A    between atoms: _340  and  _341
REMARK  139  A    between atoms: _340  and  _343
REMARK  140  A    between atoms: _343  and  _344
REMARK  141  A    between atoms: _344  and  _345
REMARK  142  A    between atoms: _345  and  _346
REMARK  143  A    between atoms: _355  and  _357
REMARK  144  A    between atoms: _357  and  _358
REMARK  145  A    between atoms: _357  and  _360
REMARK  146  A    between atoms: _360  and  _361
REMARK  147  A    between atoms: _366  and  _368
REMARK  148  A    between atoms: _368  and  _369
REMARK  149  A    between atoms: _368  and  _371
REMARK  150  A    between atoms: _373  and  _375
REMARK  151  A    between atoms: _375  and  _376
REMARK  152  A    between atoms: _375  and  _378
REMARK  153  A    between atoms: _378  and  _379
REMARK  154  A    between atoms: _379  and  _380
REMARK  155  A    between atoms: _382  and  _384
REMARK  156  A    between atoms: _384  and  _385
REMARK  157  A    between atoms: _384  and  _387
REMARK  158  A    between atoms: _387  and  _388
REMARK  159  A    between atoms: _391  and  _393
REMARK  160  A    between atoms: _393  and  _394
REMARK  161  A    between atoms: _393  and  _396
REMARK  162  A    between atoms: _396  and  _397
REMARK  163  A    between atoms: _400  and  _402
REMARK  164  A    between atoms: _402  and  _403
REMARK  165  A    between atoms: _402  and  _405
REMARK  166  A    between atoms: _405  and  _406
REMARK  167  A    between atoms: _406  and  _407
REMARK  168  A    between atoms: _407  and  _408
REMARK  169  A    between atoms: _408  and  _409
REMARK  170  A    between atoms: _413  and  _415
REMARK  171  A    between atoms: _415  and  _416
REMARK  172  A    between atoms: _415  and  _418
REMARK  173  A    between atoms: _421  and  _423
REMARK  174  A    between atoms: _423  and  _424
REMARK  175  A    between atoms: _427  and  _429
REMARK  176  A    between atoms: _429  and  _430
REMARK  177  A    between atoms: _429  and  _432
REMARK  178  A    between atoms: _432  and  _433
REMARK  179  A    between atoms: _436  and  _438
REMARK  180  A    between atoms: _438  and  _439
REMARK  181  A    between atoms: _438  and  _441
REMARK  182  A    between atoms: _441  and  _442
REMARK  183  A    between atoms: _448  and  _450
REMARK  184  A    between atoms: _450  and  _451
REMARK  185  A    between atoms: _450  and  _453
REMARK  186  A    between atoms: _453  and  _454
REMARK  187  A    between atoms: _457  and  _459
REMARK  188  A    between atoms: _459  and  _460
REMARK  189  A    between atoms: _463  and  _465
REMARK  190  A    between atoms: _465  and  _466
REMARK  191  A    between atoms: _465  and  _468
REMARK  192  A    between atoms: _468  and  _469
REMARK  193  A    between atoms: _469  and  _470
REMARK  194  A    between atoms: _470  and  _471
REMARK  195  A    between atoms: _480  and  _482
REMARK  196  A    between atoms: _482  and  _483
REMARK  197  A    between atoms: _482  and  _485
REMARK  198  A    between atoms: _485  and  _486
REMARK  199  A    between atoms: _489  and  _491
REMARK  200  A    between atoms: _491  and  _492
REMARK  201  A    between atoms: _491  and  _494
REMARK  202  A    between atoms: _494  and  _495
REMARK  203  A    between atoms: _495  and  _496
REMARK  204  A    between atoms: _498  and  _500
REMARK  205  A    between atoms: _500  and  _501
REMARK  206  A    between atoms: _500  and  _503
REMARK  207  A    between atoms: _503  and  _504
REMARK  208  A    between atoms: _509  and  _510
REMARK  209  A    between atoms: _512  and  _514
REMARK  210  A    between atoms: _514  and  _515
REMARK  211  A    between atoms: _514  and  _517
REMARK  212  A    between atoms: _517  and  _518
REMARK  213  A    between atoms: _521  and  _523
REMARK  214  A    between atoms: _523  and  _524
REMARK  215  A    between atoms: _523  and  _526
REMARK  216  A    between atoms: _526  and  _527
REMARK  217  A    between atoms: _532  and  _533
REMARK                            x       y       z     vdW  Elec       q    Type
REMARK                         _______ _______ _______ _____ _____    ______ ____
ROOT
ATOM      1  O   HOH     1      15.154  18.710  46.681  0.00  0.00    +0.000 OA
ENDROOT
TORSDOF 0
REMARK  Name = ../refined-set-2016/3zbx/3zbx_pocket.pdb
REMARK  217 active torsions:
REMARK  status: ('A' for Active; 'I' for Inactive)
REMARK    1  A    between atoms: _1  and  _3
REMARK    2  A    between atoms: _3  and  _4
REMARK    3  A    between atoms: _3  and  _6
REMARK    4  A    between atoms: _9  and  _11
REMARK    5  A    between atoms: _11  and  _12
REMARK    6  A    between atoms: _11  and  _14
REMARK    7  A    between atoms: _14  and  _15
REMARK    8  A    between atoms: _18  and  _20
REMARK    9  A    between atoms: _20  and  _21
REMARK   10  A    between atoms: _23  and  _25
REMARK   11  A    between atoms: _25  and  _26
REMARK   12  A    between atoms: _25  and  _28
REMARK   13  A    between atoms: _28  and  _29
REMARK   14  A    between atoms: _29  and  _30
REMARK   15  A    between atoms: _30  and  _31
REMARK   16  A    between atoms: _40  and  _42
REMARK   17  A    between atoms: _42  and  _43
REMARK   18  A    between atoms: _45  and  _47
REMARK   19  A    between atoms: _47  and  _48
REMARK   20  A    between atoms: _47  and  _50
REMARK   21  A    between atoms: _52  and  _54
REMARK   22  A    between atoms: _54  and  _55
REMARK   23  A    between atoms: _54  and  _57
REMARK   24  A    between atoms: _60  and  _62
REMARK   25  A    between atoms: _62  and  _63
REMARK   26  A    between atoms: _62  and  _65
REMARK   27  A    between atoms: _65  and  _66
REMARK   28  A    between atoms: _71  and  _72
REMARK   29  A    between atoms: _74  and  _76
REMARK   30  A    between atoms: _76  and  _77
REMARK   31  A    between atoms: _76  and  _79
REMARK   32  A    between atoms: _79  and  _80
REMARK   33  A    between atoms: _85  and  _87
REMARK   34  A    between atoms: _87  and  _88
REMARK   35  A    between atoms: _87  and  _90
REMARK   36  A    between atoms: _90  and  _91
REMARK   37  A    between atoms: _96  and  _98
REMARK   38  A    between atoms: _98  and  _99
REMARK   39  A    between atoms: _98  and  _101
REMARK   40  A    between atoms: _103  and  _105
REMARK   41  A    between atoms: _105  and  _106
REMARK   42  A    between atoms: _109  and  _111
REMARK   43  A    between atoms: _111  and  _112
REMARK   44  A    between atoms: _111  and  _114
REMARK   45  A    between atoms: _117  and  _119
REMARK   46  A    between atoms: _119  and  _120
REMARK   47  A    between atoms: _119  and  _122
REMARK   48  A    between atoms: _122  and  _123
REMARK   49  A    between atoms: _123  and  _124
REMARK   50  A    between atoms: _124  and  _125
REMARK   51  A    between atoms: _125  and  _126
REMARK   52  A    between atoms: _130  and  _132
REMARK   53  A    between atoms: _132  and  _133
REMARK   54  A    between atoms: _132  and  _135
REMARK   55  A    between atoms: _135  and  _136
REMARK   56  A    between atoms: _138  and  _140
REMARK   57  A    between atoms: _140  and  _141
REMARK   58  A    between atoms: _140  and  _143
REMARK   59  A    between atoms: _143  and  _144
REMARK   60  A    between atoms: _144  and  _145
REMARK   61  A    between atoms: _147  and  _149
REMARK   62  A    between atoms: _149  and  _150
REMARK   63  A    between atoms: _149  and  _152
REMARK   64  A    between atoms: _152  and  _153
REMARK   65  A    between atoms: _156  and  _158
REMARK   66  A    between atoms: _158  and  _159
REMARK   67  A    between atoms: _158  and  _161
REMARK   68  A    between atoms: _161  and  _162
REMARK   69  A    between atoms: _164  and  _166
REMARK   70  A    between atoms: _166  and  _167
REMARK   71  A    between atoms: _166  and  _169
REMARK   72  A    between atoms: _172  and  _174
REMARK   73  A    between atoms: _174  and  _175
REMARK   74  A    between atoms: _174  and  _177
REMARK   75  A    between atoms: _180  and  _182
REMARK   76  A    between atoms: _182  and  _183
REMARK   77  A    between atoms: _182  and  _185
REMARK   78  A    between atoms: _185  and  _186
REMARK   79  A    between atoms: _190  and  _191
REMARK   80  A    between atoms: _196  and  _198
REMARK   81  A    between atoms: _198  and  _199
REMARK   82  A    between atoms: _198  and  _201
REMARK   83  A    between atoms: _201  and  _202
REMARK   84  A    between atoms: _207  and  _208
REMARK   85  A    between atoms: _210  and  _212
REMARK   86  A    between atoms: _212  and  _213
REMARK   87  A    between atoms: _212  and  _215
REMARK   88  A    between atoms: _215  and  _216
REMARK   89  A    between atoms: _216  and  _217
REMARK   90  A    between atoms: _219  and  _221
REMARK   91  A    between atoms: _221  and  _222
REMARK   92  A    between atoms: _221  and  _224
REMARK   93  A    between atoms: _224  and  _225
REMARK   94  A    between atoms: _225  and  _226
REMARK   95  A    between atoms: _226  and  _227
REMARK   96  A    between atoms: _227  and  _228
REMARK   97  A    between atoms: _232  and  _234
REMARK   98  A    between atoms: _234  and  _235
REMARK   99  A    between atoms: _234  and  _237
REMARK  100  A    between atoms: _237  and  _238
REMARK  101  A    between atoms: _243  and  _245
REMARK  102  A    between atoms: _245  and  _246
REMARK  103  A    between atoms: _248  and  _250
REMARK  104  A    between atoms: _250  and  _251
REMARK  105  A    between atoms: _250  and  _253
REMARK  106  A    between atoms: _253  and  _254
REMARK  107  A    between atoms: _257  and  _259
REMARK  108  A    between atoms: _259  and  _260
REMARK  109  A    between atoms: _259  and  _262
REMARK  110  A    between atoms: _262  and  _263
REMARK  111  A    between atoms: _266  and  _268
REMARK  112  A    between atoms: _268  and  _269
REMARK  113  A    between atoms: _268  and  _271
REMARK  114  A    between atoms: _271  and  _272
REMARK  115  A    between atoms: _272  and  _273
REMARK  116  A    between atoms: _273  and  _274
REMARK  117  A    between atoms: _283  and  _285
REMARK  118  A    between atoms: _285  and  _286
REMARK  119  A    between atoms: _285  and  _288
REMARK  120  A    between atoms: _288  and  _289
REMARK  121  A    between atoms: _294  and  _296
REMARK  122  A    between atoms: _296  and  _297
REMARK  123  A    between atoms: _296  and  _299
REMARK  124  A    between atoms: _299  and  _300
REMARK  125  A    between atoms: _306  and  _308
REMARK  126  A    between atoms: _308  and  _309
REMARK  127  A    between atoms: _308  and  _311
REMARK  128  A    between atoms: _311  and  _312
REMARK  129  A    between atoms: _317  and  _319
REMARK  130  A    between atoms: _319  and  _320
REMARK  131  A    between atoms: _319  and  _322
REMARK  132  A    between atoms: _322  and  _323
REMARK  133  A    between atoms: _326  and  _328
REMARK  134  A    between atoms: _328  and  _329
REMARK  135  A    between atoms: _332  and  _334
REMARK  136  A    between atoms: _334  and  _335
REMARK  137  A    between atoms: _338  and  _340
REMARK  138  A    between atoms: _340  and  _341
REMARK  139  A    between atoms: _340  and  _343
REMARK  140  A    between atoms: _343  and  _344
REMARK  141  A    between atoms: _344  and  _345
REMARK  142  A    between atoms: _345  and  _346
REMARK  143  A    between atoms: _355  and  _357
REMARK  144  A    between atoms: _357  and  _358
REMARK  145  A    between atoms: _357  and  _360
REMARK  146  A    between atoms: _360  and  _361
REMARK  147  A    between atoms: _366  and  _368
REMARK  148  A    between atoms: _368  and  _369
REMARK  149  A    between atoms: _368  and  _371
REMARK  150  A    between atoms: _373  and  _375
REMARK  151  A    between atoms: _375  and  _376
REMARK  152  A    between atoms: _375  and  _378
REMARK  153  A    between atoms: _378  and  _379
REMARK  154  A    between atoms: _379  and  _380
REMARK  155  A    between atoms: _382  and  _384
REMARK  156  A    between atoms: _384  and  _385
REMARK  157  A    between atoms: _384  and  _387
REMARK  158  A    between atoms: _387  and  _388
REMARK  159  A    between atoms: _391  and  _393
REMARK  160  A    between atoms: _393  and  _394
REMARK  161  A    between atoms: _393  and  _396
REMARK  162  A    between atoms: _396  and  _397
REMARK  163  A    between atoms: _400  and  _402
REMARK  164  A    between atoms: _402  and  _403
REMARK  165  A    between atoms: _402  and  _405
REMARK  166  A    between atoms: _405  and  _406
REMARK  167  A    between atoms: _406  and  _407
REMARK  168  A    between atoms: _407  and  _408
REMARK  169  A    between atoms: _408  and  _409
REMARK  170  A    between atoms: _413  and  _415
REMARK  171  A    between atoms: _415  and  _416
REMARK  172  A    between atoms: _415  and  _418
REMARK  173  A    between atoms: _421  and  _423
REMARK  174  A    between atoms: _423  and  _424
REMARK  175  A    between atoms: _427  and  _429
REMARK  176  A    between atoms: _429  and  _430
REMARK  177  A    between atoms: _429  and  _432
REMARK  178  A    between atoms: _432  and  _433
REMARK  179  A    between atoms: _436  and  _438
REMARK  180  A    between atoms: _438  and  _439
REMARK  181  A    between atoms: _438  and  _441
REMARK  182  A    between atoms: _441  and  _442
REMARK  183  A    between atoms: _448  and  _450
REMARK  184  A    between atoms: _450  and  _451
REMARK  185  A    between atoms: _450  and  _453
REMARK  186  A    between atoms: _453  and  _454
REMARK  187  A    between atoms: _457  and  _459
REMARK  188  A    between atoms: _459  and  _460
REMARK  189  A    between atoms: _463  and  _465
REMARK  190  A    between atoms: _465  and  _466
REMARK  191  A    between atoms: _465  and  _468
REMARK  192  A    between atoms: _468  and  _469
REMARK  193  A    between atoms: _469  and  _470
REMARK  194  A    between atoms: _470  and  _471
REMARK  195  A    between atoms: _480  and  _482
REMARK  196  A    between atoms: _482  and  _483
REMARK  197  A    between atoms: _482  and  _485
REMARK  198  A    between atoms: _485  and  _486
REMARK  199  A    between atoms: _489  and  _491
REMARK  200  A    between atoms: _491  and  _492
REMARK  201  A    between atoms: _491  and  _494
REMARK  202  A    between atoms: _494  and  _495
REMARK  203  A    between atoms: _495  and  _496
REMARK  204  A    between atoms: _498  and  _500
REMARK  205  A    between atoms: _500  and  _501
REMARK  206  A    between atoms: _500  and  _503
REMARK  207  A    between atoms: _503  and  _504
REMARK  208  A    between atoms: _509  and  _510
REMARK  209  A    between atoms: _512  and  _514
REMARK  210  A    between atoms: _514  and  _515
REMARK  211  A    between atoms: _514  and  _517
REMARK  212  A    between atoms: _517  and  _518
REMARK  213  A    between atoms: _521  and  _523
REMARK  214  A    between atoms: _523  and  _524
REMARK  215  A    between atoms: _523  and  _526
REMARK  216  A    between atoms: _526  and  _527
REMARK  217  A    between atoms: _532  and  _533
REMARK                            x       y       z     vdW  Elec       q    Type
REMARK                         _______ _______ _______ _____ _____    ______ ____
ROOT
ATOM      1  O   HOH     1      16.090  17.687  50.230  0.00  0.00    +0.000 OA
ENDROOT
TORSDOF 0
REMARK  Name = ../refined-set-2016/3zbx/3zbx_pocket.pdb
REMARK  217 active torsions:
REMARK  status: ('A' for Active; 'I' for Inactive)
REMARK    1  A    between atoms: _1  and  _3
REMARK    2  A    between atoms: _3  and  _4
REMARK    3  A    between atoms: _3  and  _6
REMARK    4  A    between atoms: _9  and  _11
REMARK    5  A    between atoms: _11  and  _12
REMARK    6  A    between atoms: _11  and  _14
REMARK    7  A    between atoms: _14  and  _15
REMARK    8  A    between atoms: _18  and  _20
REMARK    9  A    between atoms: _20  and  _21
REMARK   10  A    between atoms: _23  and  _25
REMARK   11  A    between atoms: _25  and  _26
REMARK   12  A    between atoms: _25  and  _28
REMARK   13  A    between atoms: _28  and  _29
REMARK   14  A    between atoms: _29  and  _30
REMARK   15  A    between atoms: _30  and  _31
REMARK   16  A    between atoms: _40  and  _42
REMARK   17  A    between atoms: _42  and  _43
REMARK   18  A    between atoms: _45  and  _47
REMARK   19  A    between atoms: _47  and  _48
REMARK   20  A    between atoms: _47  and  _50
REMARK   21  A    between atoms: _52  and  _54
REMARK   22  A    between atoms: _54  and  _55
REMARK   23  A    between atoms: _54  and  _57
REMARK   24  A    between atoms: _60  and  _62
REMARK   25  A    between atoms: _62  and  _63
REMARK   26  A    between atoms: _62  and  _65
REMARK   27  A    between atoms: _65  and  _66
REMARK   28  A    between atoms: _71  and  _72
REMARK   29  A    between atoms: _74  and  _76
REMARK   30  A    between atoms: _76  and  _77
REMARK   31  A    between atoms: _76  and  _79
REMARK   32  A    between atoms: _79  and  _80
REMARK   33  A    between atoms: _85  and  _87
REMARK   34  A    between atoms: _87  and  _88
REMARK   35  A    between atoms: _87  and  _90
REMARK   36  A    between atoms: _90  and  _91
REMARK   37  A    between atoms: _96  and  _98
REMARK   38  A    between atoms: _98  and  _99
REMARK   39  A    between atoms: _98  and  _101
REMARK   40  A    between atoms: _103  and  _105
REMARK   41  A    between atoms: _105  and  _106
REMARK   42  A    between atoms: _109  and  _111
REMARK   43  A    between atoms: _111  and  _112
REMARK   44  A    between atoms: _111  and  _114
REMARK   45  A    between atoms: _117  and  _119
REMARK   46  A    between atoms: _119  and  _120
REMARK   47  A    between atoms: _119  and  _122
REMARK   48  A    between atoms: _122  and  _123
REMARK   49  A    between atoms: _123  and  _124
REMARK   50  A    between atoms: _124  and  _125
REMARK   51  A    between atoms: _125  and  _126
REMARK   52  A    between atoms: _130  and  _132
REMARK   53  A    between atoms: _132  and  _133
REMARK   54  A    between atoms: _132  and  _135
REMARK   55  A    between atoms: _135  and  _136
REMARK   56  A    between atoms: _138  and  _140
REMARK   57  A    between atoms: _140  and  _141
REMARK   58  A    between atoms: _140  and  _143
REMARK   59  A    between atoms: _143  and  _144
REMARK   60  A    between atoms: _144  and  _145
REMARK   61  A    between atoms: _147  and  _149
REMARK   62  A    between atoms: _149  and  _150
REMARK   63  A    between atoms: _149  and  _152
REMARK   64  A    between atoms: _152  and  _153
REMARK   65  A    between atoms: _156  and  _158
REMARK   66  A    between atoms: _158  and  _159
REMARK   67  A    between atoms: _158  and  _161
REMARK   68  A    between atoms: _161  and  _162
REMARK   69  A    between atoms: _164  and  _166
REMARK   70  A    between atoms: _166  and  _167
REMARK   71  A    between atoms: _166  and  _169
REMARK   72  A    between atoms: _172  and  _174
REMARK   73  A    between atoms: _174  and  _175
REMARK   74  A    between atoms: _174  and  _177
REMARK   75  A    between atoms: _180  and  _182
REMARK   76  A    between atoms: _182  and  _183
REMARK   77  A    between atoms: _182  and  _185
REMARK   78  A    between atoms: _185  and  _186
REMARK   79  A    between atoms: _190  and  _191
REMARK   80  A    between atoms: _196  and  _198
REMARK   81  A    between atoms: _198  and  _199
REMARK   82  A    between atoms: _198  and  _201
REMARK   83  A    between atoms: _201  and  _202
REMARK   84  A    between atoms: _207  and  _208
REMARK   85  A    between atoms: _210  and  _212
REMARK   86  A    between atoms: _212  and  _213
REMARK   87  A    between atoms: _212  and  _215
REMARK   88  A    between atoms: _215  and  _216
REMARK   89  A    between atoms: _216  and  _217
REMARK   90  A    between atoms: _219  and  _221
REMARK   91  A    between atoms: _221  and  _222
REMARK   92  A    between atoms: _221  and  _224
REMARK   93  A    between atoms: _224  and  _225
REMARK   94  A    between atoms: _225  and  _226
REMARK   95  A    between atoms: _226  and  _227
REMARK   96  A    between atoms: _227  and  _228
REMARK   97  A    between atoms: _232  and  _234
REMARK   98  A    between atoms: _234  and  _235
REMARK   99  A    between atoms: _234  and  _237
REMARK  100  A    between atoms: _237  and  _238
REMARK  101  A    between atoms: _243  and  _245
REMARK  102  A    between atoms: _245  and  _246
REMARK  103  A    between atoms: _248  and  _250
REMARK  104  A    between atoms: _250  and  _251
REMARK  105  A    between atoms: _250  and  _253
REMARK  106  A    between atoms: _253  and  _254
REMARK  107  A    between atoms: _257  and  _259
REMARK  108  A    between atoms: _259  and  _260
REMARK  109  A    between atoms: _259  and  _262
REMARK  110  A    between atoms: _262  and  _263
REMARK  111  A    between atoms: _266  and  _268
REMARK  112  A    between atoms: _268  and  _269
REMARK  113  A    between atoms: _268  and  _271
REMARK  114  A    between atoms: _271  and  _272
REMARK  115  A    between atoms: _272  and  _273
REMARK  116  A    between atoms: _273  and  _274
REMARK  117  A    between atoms: _283  and  _285
REMARK  118  A    between atoms: _285  and  _286
REMARK  119  A    between atoms: _285  and  _288
REMARK  120  A    between atoms: _288  and  _289
REMARK  121  A    between atoms: _294  and  _296
REMARK  122  A    between atoms: _296  and  _297
REMARK  123  A    between atoms: _296  and  _299
REMARK  124  A    between atoms: _299  and  _300
REMARK  125  A    between atoms: _306  and  _308
REMARK  126  A    between atoms: _308  and  _309
REMARK  127  A    between atoms: _308  and  _311
REMARK  128  A    between atoms: _311  and  _312
REMARK  129  A    between atoms: _317  and  _319
REMARK  130  A    between atoms: _319  and  _320
REMARK  131  A    between atoms: _319  and  _322
REMARK  132  A    between atoms: _322  and  _323
REMARK  133  A    between atoms: _326  and  _328
REMARK  134  A    between atoms: _328  and  _329
REMARK  135  A    between atoms: _332  and  _334
REMARK  136  A    between atoms: _334  and  _335
REMARK  137  A    between atoms: _338  and  _340
REMARK  138  A    between atoms: _340  and  _341
REMARK  139  A    between atoms: _340  and  _343
REMARK  140  A    between atoms: _343  and  _344
REMARK  141  A    between atoms: _344  and  _345
REMARK  142  A    between atoms: _345  and  _346
REMARK  143  A    between atoms: _355  and  _357
REMARK  144  A    between atoms: _357  and  _358
REMARK  145  A    between atoms: _357  and  _360
REMARK  146  A    between atoms: _360  and  _361
REMARK  147  A    between atoms: _366  and  _368
REMARK  148  A    between atoms: _368  and  _369
REMARK  149  A    between atoms: _368  and  _371
REMARK  150  A    between atoms: _373  and  _375
REMARK  151  A    between atoms: _375  and  _376
REMARK  152  A    between atoms: _375  and  _378
REMARK  153  A    between atoms: _378  and  _379
REMARK  154  A    between atoms: _379  and  _380
REMARK  155  A    between atoms: _382  and  _384
REMARK  156  A    between atoms: _384  and  _385
REMARK  157  A    between atoms: _384  and  _387
REMARK  158  A    between atoms: _387  and  _388
REMARK  159  A    between atoms: _391  and  _393
REMARK  160  A    between atoms: _393  and  _394
REMARK  161  A    between atoms: _393  and  _396
REMARK  162  A    between atoms: _396  and  _397
REMARK  163  A    between atoms: _400  and  _402
REMARK  164  A    between atoms: _402  and  _403
REMARK  165  A    between atoms: _402  and  _405
REMARK  166  A    between atoms: _405  and  _406
REMARK  167  A    between atoms: _406  and  _407
REMARK  168  A    between atoms: _407  and  _408
REMARK  169  A    between atoms: _408  and  _409
REMARK  170  A    between atoms: _413  and  _415
REMARK  171  A    between atoms: _415  and  _416
REMARK  172  A    between atoms: _415  and  _418
REMARK  173  A    between atoms: _421  and  _423
REMARK  174  A    between atoms: _423  and  _424
REMARK  175  A    between atoms: _427  and  _429
REMARK  176  A    between atoms: _429  and  _430
REMARK  177  A    between atoms: _429  and  _432
REMARK  178  A    between atoms: _432  and  _433
REMARK  179  A    between atoms: _436  and  _438
REMARK  180  A    between atoms: _438  and  _439
REMARK  181  A    between atoms: _438  and  _441
REMARK  182  A    between atoms: _441  and  _442
REMARK  183  A    between atoms: _448  and  _450
REMARK  184  A    between atoms: _450  and  _451
REMARK  185  A    between atoms: _450  and  _453
REMARK  186  A    between atoms: _453  and  _454
REMARK  187  A    between atoms: _457  and  _459
REMARK  188  A    between atoms: _459  and  _460
REMARK  189  A    between atoms: _463  and  _465
REMARK  190  A    between atoms: _465  and  _466
REMARK  191  A    between atoms: _465  and  _468
REMARK  192  A    between atoms: _468  and  _469
REMARK  193  A    between atoms: _469  and  _470
REMARK  194  A    between atoms: _470  and  _471
REMARK  195  A    between atoms: _480  and  _482
REMARK  196  A    between atoms: _482  and  _483
REMARK  197  A    between atoms: _482  and  _485
REMARK  198  A    between atoms: _485  and  _486
REMARK  199  A    between atoms: _489  and  _491
REMARK  200  A    between atoms: _491  and  _492
REMARK  201  A    between atoms: _491  and  _494
REMARK  202  A    between atoms: _494  and  _495
REMARK  203  A    between atoms: _495  and  _496
REMARK  204  A    between atoms: _498  and  _500
REMARK  205  A    between atoms: _500  and  _501
REMARK  206  A    between atoms: _500  and  _503
REMARK  207  A    between atoms: _503  and  _504
REMARK  208  A    between atoms: _509  and  _510
REMARK  209  A    between atoms: _512  and  _514
REMARK  210  A    between atoms: _514  and  _515
REMARK  211  A    between atoms: _514  and  _517
REMARK  212  A    between atoms: _517  and  _518
REMARK  213  A    between atoms: _521  and  _523
REMARK  214  A    between atoms: _523  and  _524
REMARK  215  A    between atoms: _523  and  _526
REMARK  216  A    between atoms: _526  and  _527
REMARK  217  A    between atoms: _532  and  _533
REMARK                            x       y       z     vdW  Elec       q    Type
REMARK                         _______ _______ _______ _____ _____    ______ ____
ROOT
ATOM      1  O   HOH     1      18.473  18.956  48.534  0.00  0.00    +0.000 OA
ENDROOT
TORSDOF 0
REMARK  Name = ../refined-set-2016/3zbx/3zbx_pocket.pdb
REMARK  217 active torsions:
REMARK  status: ('A' for Active; 'I' for Inactive)
REMARK    1  A    between atoms: _1  and  _3
REMARK    2  A    between atoms: _3  and  _4
REMARK    3  A    between atoms: _3  and  _6
REMARK    4  A    between atoms: _9  and  _11
REMARK    5  A    between atoms: _11  and  _12
REMARK    6  A    between atoms: _11  and  _14
REMARK    7  A    between atoms: _14  and  _15
REMARK    8  A    between atoms: _18  and  _20
REMARK    9  A    between atoms: _20  and  _21
REMARK   10  A    between atoms: _23  and  _25
REMARK   11  A    between atoms: _25  and  _26
REMARK   12  A    between atoms: _25  and  _28
REMARK   13  A    between atoms: _28  and  _29
REMARK   14  A    between atoms: _29  and  _30
REMARK   15  A    between atoms: _30  and  _31
REMARK   16  A    between atoms: _40  and  _42
REMARK   17  A    between atoms: _42  and  _43
REMARK   18  A    between atoms: _45  and  _47
REMARK   19  A    between atoms: _47  and  _48
REMARK   20  A    between atoms: _47  and  _50
REMARK   21  A    between atoms: _52  and  _54
REMARK   22  A    between atoms: _54  and  _55
REMARK   23  A    between atoms: _54  and  _57
REMARK   24  A    between atoms: _60  and  _62
REMARK   25  A    between atoms: _62  and  _63
REMARK   26  A    between atoms: _62  and  _65
REMARK   27  A    between atoms: _65  and  _66
REMARK   28  A    between atoms: _71  and  _72
REMARK   29  A    between atoms: _74  and  _76
REMARK   30  A    between atoms: _76  and  _77
REMARK   31  A    between atoms: _76  and  _79
REMARK   32  A    between atoms: _79  and  _80
REMARK   33  A    between atoms: _85  and  _87
REMARK   34  A    between atoms: _87  and  _88
REMARK   35  A    between atoms: _87  and  _90
REMARK   36  A    between atoms: _90  and  _91
REMARK   37  A    between atoms: _96  and  _98
REMARK   38  A    between atoms: _98  and  _99
REMARK   39  A    between atoms: _98  and  _101
REMARK   40  A    between atoms: _103  and  _105
REMARK   41  A    between atoms: _105  and  _106
REMARK   42  A    between atoms: _109  and  _111
REMARK   43  A    between atoms: _111  and  _112
REMARK   44  A    between atoms: _111  and  _114
REMARK   45  A    between atoms: _117  and  _119
REMARK   46  A    between atoms: _119  and  _120
REMARK   47  A    between atoms: _119  and  _122
REMARK   48  A    between atoms: _122  and  _123
REMARK   49  A    between atoms: _123  and  _124
REMARK   50  A    between atoms: _124  and  _125
REMARK   51  A    between atoms: _125  and  _126
REMARK   52  A    between atoms: _130  and  _132
REMARK   53  A    between atoms: _132  and  _133
REMARK   54  A    between atoms: _132  and  _135
REMARK   55  A    between atoms: _135  and  _136
REMARK   56  A    between atoms: _138  and  _140
REMARK   57  A    between atoms: _140  and  _141
REMARK   58  A    between atoms: _140  and  _143
REMARK   59  A    between atoms: _143  and  _144
REMARK   60  A    between atoms: _144  and  _145
REMARK   61  A    between atoms: _147  and  _149
REMARK   62  A    between atoms: _149  and  _150
REMARK   63  A    between atoms: _149  and  _152
REMARK   64  A    between atoms: _152  and  _153
REMARK   65  A    between atoms: _156  and  _158
REMARK   66  A    between atoms: _158  and  _159
REMARK   67  A    between atoms: _158  and  _161
REMARK   68  A    between atoms: _161  and  _162
REMARK   69  A    between atoms: _164  and  _166
REMARK   70  A    between atoms: _166  and  _167
REMARK   71  A    between atoms: _166  and  _169
REMARK   72  A    between atoms: _172  and  _174
REMARK   73  A    between atoms: _174  and  _175
REMARK   74  A    between atoms: _174  and  _177
REMARK   75  A    between atoms: _180  and  _182
REMARK   76  A    between atoms: _182  and  _183
REMARK   77  A    between atoms: _182  and  _185
REMARK   78  A    between atoms: _185  and  _186
REMARK   79  A    between atoms: _190  and  _191
REMARK   80  A    between atoms: _196  and  _198
REMARK   81  A    between atoms: _198  and  _199
REMARK   82  A    between atoms: _198  and  _201
REMARK   83  A    between atoms: _201  and  _202
REMARK   84  A    between atoms: _207  and  _208
REMARK   85  A    between atoms: _210  and  _212
REMARK   86  A    between atoms: _212  and  _213
REMARK   87  A    between atoms: _212  and  _215
REMARK   88  A    between atoms: _215  and  _216
REMARK   89  A    between atoms: _216  and  _217
REMARK   90  A    between atoms: _219  and  _221
REMARK   91  A    between atoms: _221  and  _222
REMARK   92  A    between atoms: _221  and  _224
REMARK   93  A    between atoms: _224  and  _225
REMARK   94  A    between atoms: _225  and  _226
REMARK   95  A    between atoms: _226  and  _227
REMARK   96  A    between atoms: _227  and  _228
REMARK   97  A    between atoms: _232  and  _234
REMARK   98  A    between atoms: _234  and  _235
REMARK   99  A    between atoms: _234  and  _237
REMARK  100  A    between atoms: _237  and  _238
REMARK  101  A    between atoms: _243  and  _245
REMARK  102  A    between atoms: _245  and  _246
REMARK  103  A    between atoms: _248  and  _250
REMARK  104  A    between atoms: _250  and  _251
REMARK  105  A    between atoms: _250  and  _253
REMARK  106  A    between atoms: _253  and  _254
REMARK  107  A    between atoms: _257  and  _259
REMARK  108  A    between atoms: _259  and  _260
REMARK  109  A    between atoms: _259  and  _262
REMARK  110  A    between atoms: _262  and  _263
REMARK  111  A    between atoms: _266  and  _268
REMARK  112  A    between atoms: _268  and  _269
REMARK  113  A    between atoms: _268  and  _271
REMARK  114  A    between atoms: _271  and  _272
REMARK  115  A    between atoms: _272  and  _273
REMARK  116  A    between atoms: _273  and  _274
REMARK  117  A    between atoms: _283  and  _285
REMARK  118  A    between atoms: _285  and  _286
REMARK  119  A    between atoms: _285  and  _288
REMARK  120  A    between atoms: _288  and  _289
REMARK  121  A    between atoms: _294  and  _296
REMARK  122  A    between atoms: _296  and  _297
REMARK  123  A    between atoms: _296  and  _299
REMARK  124  A    between atoms: _299  and  _300
REMARK  125  A    between atoms: _306  and  _308
REMARK  126  A    between atoms: _308  and  _309
REMARK  127  A    between atoms: _308  and  _311
REMARK  128  A    between atoms: _311  and  _312
REMARK  129  A    between atoms: _317  and  _319
REMARK  130  A    between atoms: _319  and  _320
REMARK  131  A    between atoms: _319  and  _322
REMARK  132  A    between atoms: _322  and  _323
REMARK  133  A    between atoms: _326  and  _328
REMARK  134  A    between atoms: _328  and  _329
REMARK  135  A    between atoms: _332  and  _334
REMARK  136  A    between atoms: _334  and  _335
REMARK  137  A    between atoms: _338  and  _340
REMARK  138  A    between atoms: _340  and  _341
REMARK  139  A    between atoms: _340  and  _343
REMARK  140  A    between atoms: _343  and  _344
REMARK  141  A    between atoms: _344  and  _345
REMARK  142  A    between atoms: _345  and  _346
REMARK  143  A    between atoms: _355  and  _357
REMARK  144  A    between atoms: _357  and  _358
REMARK  145  A    between atoms: _357  and  _360
REMARK  146  A    between atoms: _360  and  _361
REMARK  147  A    between atoms: _366  and  _368
REMARK  148  A    between atoms: _368  and  _369
REMARK  149  A    between atoms: _368  and  _371
REMARK  150  A    between atoms: _373  and  _375
REMARK  151  A    between atoms: _375  and  _376
REMARK  152  A    between atoms: _375  and  _378
REMARK  153  A    between atoms: _378  and  _379
REMARK  154  A    between atoms: _379  and  _380
REMARK  155  A    between atoms: _382  and  _384
REMARK  156  A    between atoms: _384  and  _385
REMARK  157  A    between atoms: _384  and  _387
REMARK  158  A    between atoms: _387  and  _388
REMARK  159  A    between atoms: _391  and  _393
REMARK  160  A    between atoms: _393  and  _394
REMARK  161  A    between atoms: _393  and  _396
REMARK  162  A    between atoms: _396  and  _397
REMARK  163  A    between atoms: _400  and  _402
REMARK  164  A    between atoms: _402  and  _403
REMARK  165  A    between atoms: _402  and  _405
REMARK  166  A    between atoms: _405  and  _406
REMARK  167  A    between atoms: _406  and  _407
REMARK  168  A    between atoms: _407  and  _408
REMARK  169  A    between atoms: _408  and  _409
REMARK  170  A    between atoms: _413  and  _415
REMARK  171  A    between atoms: _415  and  _416
REMARK  172  A    between atoms: _415  and  _418
REMARK  173  A    between atoms: _421  and  _423
REMARK  174  A    between atoms: _423  and  _424
REMARK  175  A    between atoms: _427  and  _429
REMARK  176  A    between atoms: _429  and  _430
REMARK  177  A    between atoms: _429  and  _432
REMARK  178  A    between atoms: _432  and  _433
REMARK  179  A    between atoms: _436  and  _438
REMARK  180  A    between atoms: _438  and  _439
REMARK  181  A    between atoms: _438  and  _441
REMARK  182  A    between atoms: _441  and  _442
REMARK  183  A    between atoms: _448  and  _450
REMARK  184  A    between atoms: _450  and  _451
REMARK  185  A    between atoms: _450  and  _453
REMARK  186  A    between atoms: _453  and  _454
REMARK  187  A    between atoms: _457  and  _459
REMARK  188  A    between atoms: _459  and  _460
REMARK  189  A    between atoms: _463  and  _465
REMARK  190  A    between atoms: _465  and  _466
REMARK  191  A    between atoms: _465  and  _468
REMARK  192  A    between atoms: _468  and  _469
REMARK  193  A    between atoms: _469  and  _470
REMARK  194  A    between atoms: _470  and  _471
REMARK  195  A    between atoms: _480  and  _482
REMARK  196  A    between atoms: _482  and  _483
REMARK  197  A    between atoms: _482  and  _485
REMARK  198  A    between atoms: _485  and  _486
REMARK  199  A    between atoms: _489  and  _491
REMARK  200  A    between atoms: _491  and  _492
REMARK  201  A    between atoms: _491  and  _494
REMARK  202  A    between atoms: _494  and  _495
REMARK  203  A    between atoms: _495  and  _496
REMARK  204  A    between atoms: _498  and  _500
REMARK  205  A    between atoms: _500  and  _501
REMARK  206  A    between atoms: _500  and  _503
REMARK  207  A    between atoms: _503  and  _504
REMARK  208  A    between atoms: _509  and  _510
REMARK  209  A    between atoms: _512  and  _514
REMARK  210  A    between atoms: _514  and  _515
REMARK  211  A    between atoms: _514  and  _517
REMARK  212  A    between atoms: _517  and  _518
REMARK  213  A    between atoms: _521  and  _523
REMARK  214  A    between atoms: _523  and  _524
REMARK  215  A    between atoms: _523  and  _526
REMARK  216  A    between atoms: _526  and  _527
REMARK  217  A    between atoms: _532  and  _533
REMARK                            x       y       z     vdW  Elec       q    Type
REMARK                         _______ _______ _______ _____ _____    ______ ____
ROOT
ATOM      1  O   HOH     1      17.411  15.716  48.919  0.00  0.00    +0.000 OA
ENDROOT
TORSDOF 0
REMARK  Name = ../refined-set-2016/3zbx/3zbx_pocket.pdb
REMARK  217 active torsions:
REMARK  status: ('A' for Active; 'I' for Inactive)
REMARK    1  A    between atoms: _1  and  _3
REMARK    2  A    between atoms: _3  and  _4
REMARK    3  A    between atoms: _3  and  _6
REMARK    4  A    between atoms: _9  and  _11
REMARK    5  A    between atoms: _11  and  _12
REMARK    6  A    between atoms: _11  and  _14
REMARK    7  A    between atoms: _14  and  _15
REMARK    8  A    between atoms: _18  and  _20
REMARK    9  A    between atoms: _20  and  _21
REMARK   10  A    between atoms: _23  and  _25
REMARK   11  A    between atoms: _25  and  _26
REMARK   12  A    between atoms: _25  and  _28
REMARK   13  A    between atoms: _28  and  _29
REMARK   14  A    between atoms: _29  and  _30
REMARK   15  A    between atoms: _30  and  _31
REMARK   16  A    between atoms: _40  and  _42
REMARK   17  A    between atoms: _42  and  _43
REMARK   18  A    between atoms: _45  and  _47
REMARK   19  A    between atoms: _47  and  _48
REMARK   20  A    between atoms: _47  and  _50
REMARK   21  A    between atoms: _52  and  _54
REMARK   22  A    between atoms: _54  and  _55
REMARK   23  A    between atoms: _54  and  _57
REMARK   24  A    between atoms: _60  and  _62
REMARK   25  A    between atoms: _62  and  _63
REMARK   26  A    between atoms: _62  and  _65
REMARK   27  A    between atoms: _65  and  _66
REMARK   28  A    between atoms: _71  and  _72
REMARK   29  A    between atoms: _74  and  _76
REMARK   30  A    between atoms: _76  and  _77
REMARK   31  A    between atoms: _76  and  _79
REMARK   32  A    between atoms: _79  and  _80
REMARK   33  A    between atoms: _85  and  _87
REMARK   34  A    between atoms: _87  and  _88
REMARK   35  A    between atoms: _87  and  _90
REMARK   36  A    between atoms: _90  and  _91
REMARK   37  A    between atoms: _96  and  _98
REMARK   38  A    between atoms: _98  and  _99
REMARK   39  A    between atoms: _98  and  _101
REMARK   40  A    between atoms: _103  and  _105
REMARK   41  A    between atoms: _105  and  _106
REMARK   42  A    between atoms: _109  and  _111
REMARK   43  A    between atoms: _111  and  _112
REMARK   44  A    between atoms: _111  and  _114
REMARK   45  A    between atoms: _117  and  _119
REMARK   46  A    between atoms: _119  and  _120
REMARK   47  A    between atoms: _119  and  _122
REMARK   48  A    between atoms: _122  and  _123
REMARK   49  A    between atoms: _123  and  _124
REMARK   50  A    between atoms: _124  and  _125
REMARK   51  A    between atoms: _125  and  _126
REMARK   52  A    between atoms: _130  and  _132
REMARK   53  A    between atoms: _132  and  _133
REMARK   54  A    between atoms: _132  and  _135
REMARK   55  A    between atoms: _135  and  _136
REMARK   56  A    between atoms: _138  and  _140
REMARK   57  A    between atoms: _140  and  _141
REMARK   58  A    between atoms: _140  and  _143
REMARK   59  A    between atoms: _143  and  _144
REMARK   60  A    between atoms: _144  and  _145
REMARK   61  A    between atoms: _147  and  _149
REMARK   62  A    between atoms: _149  and  _150
REMARK   63  A    between atoms: _149  and  _152
REMARK   64  A    between atoms: _152  and  _153
REMARK   65  A    between atoms: _156  and  _158
REMARK   66  A    between atoms: _158  and  _159
REMARK   67  A    between atoms: _158  and  _161
REMARK   68  A    between atoms: _161  and  _162
REMARK   69  A    between atoms: _164  and  _166
REMARK   70  A    between atoms: _166  and  _167
REMARK   71  A    between atoms: _166  and  _169
REMARK   72  A    between atoms: _172  and  _174
REMARK   73  A    between atoms: _174  and  _175
REMARK   74  A    between atoms: _174  and  _177
REMARK   75  A    between atoms: _180  and  _182
REMARK   76  A    between atoms: _182  and  _183
REMARK   77  A    between atoms: _182  and  _185
REMARK   78  A    between atoms: _185  and  _186
REMARK   79  A    between atoms: _190  and  _191
REMARK   80  A    between atoms: _196  and  _198
REMARK   81  A    between atoms: _198  and  _199
REMARK   82  A    between atoms: _198  and  _201
REMARK   83  A    between atoms: _201  and  _202
REMARK   84  A    between atoms: _207  and  _208
REMARK   85  A    between atoms: _210  and  _212
REMARK   86  A    between atoms: _212  and  _213
REMARK   87  A    between atoms: _212  and  _215
REMARK   88  A    between atoms: _215  and  _216
REMARK   89  A    between atoms: _216  and  _217
REMARK   90  A    between atoms: _219  and  _221
REMARK   91  A    between atoms: _221  and  _222
REMARK   92  A    between atoms: _221  and  _224
REMARK   93  A    between atoms: _224  and  _225
REMARK   94  A    between atoms: _225  and  _226
REMARK   95  A    between atoms: _226  and  _227
REMARK   96  A    between atoms: _227  and  _228
REMARK   97  A    between atoms: _232  and  _234
REMARK   98  A    between atoms: _234  and  _235
REMARK   99  A    between atoms: _234  and  _237
REMARK  100  A    between atoms: _237  and  _238
REMARK  101  A    between atoms: _243  and  _245
REMARK  102  A    between atoms: _245  and  _246
REMARK  103  A    between atoms: _248  and  _250
REMARK  104  A    between atoms: _250  and  _251
REMARK  105  A    between atoms: _250  and  _253
REMARK  106  A    between atoms: _253  and  _254
REMARK  107  A    between atoms: _257  and  _259
REMARK  108  A    between atoms: _259  and  _260
REMARK  109  A    between atoms: _259  and  _262
REMARK  110  A    between atoms: _262  and  _263
REMARK  111  A    between atoms: _266  and  _268
REMARK  112  A    between atoms: _268  and  _269
REMARK  113  A    between atoms: _268  and  _271
REMARK  114  A    between atoms: _271  and  _272
REMARK  115  A    between atoms: _272  and  _273
REMARK  116  A    between atoms: _273  and  _274
REMARK  117  A    between atoms: _283  and  _285
REMARK  118  A    between atoms: _285  and  _286
REMARK  119  A    between atoms: _285  and  _288
REMARK  120  A    between atoms: _288  and  _289
REMARK  121  A    between atoms: _294  and  _296
REMARK  122  A    between atoms: _296  and  _297
REMARK  123  A    between atoms: _296  and  _299
REMARK  124  A    between atoms: _299  and  _300
REMARK  125  A    between atoms: _306  and  _308
REMARK  126  A    between atoms: _308  and  _309
REMARK  127  A    between atoms: _308  and  _311
REMARK  128  A    between atoms: _311  and  _312
REMARK  129  A    between atoms: _317  and  _319
REMARK  130  A    between atoms: _319  and  _320
REMARK  131  A    between atoms: _319  and  _322
REMARK  132  A    between atoms: _322  and  _323
REMARK  133  A    between atoms: _326  and  _328
REMARK  134  A    between atoms: _328  and  _329
REMARK  135  A    between atoms: _332  and  _334
REMARK  136  A    between atoms: _334  and  _335
REMARK  137  A    between atoms: _338  and  _340
REMARK  138  A    between atoms: _340  and  _341
REMARK  139  A    between atoms: _340  and  _343
REMARK  140  A    between atoms: _343  and  _344
REMARK  141  A    between atoms: _344  and  _345
REMARK  142  A    between atoms: _345  and  _346
REMARK  143  A    between atoms: _355  and  _357
REMARK  144  A    between atoms: _357  and  _358
REMARK  145  A    between atoms: _357  and  _360
REMARK  146  A    between atoms: _360  and  _361
REMARK  147  A    between atoms: _366  and  _368
REMARK  148  A    between atoms: _368  and  _369
REMARK  149  A    between atoms: _368  and  _371
REMARK  150  A    between atoms: _373  and  _375
REMARK  151  A    between atoms: _375  and  _376
REMARK  152  A    between atoms: _375  and  _378
REMARK  153  A    between atoms: _378  and  _379
REMARK  154  A    between atoms: _379  and  _380
REMARK  155  A    between atoms: _382  and  _384
REMARK  156  A    between atoms: _384  and  _385
REMARK  157  A    between atoms: _384  and  _387
REMARK  158  A    between atoms: _387  and  _388
REMARK  159  A    between atoms: _391  and  _393
REMARK  160  A    between atoms: _393  and  _394
REMARK  161  A    between atoms: _393  and  _396
REMARK  162  A    between atoms: _396  and  _397
REMARK  163  A    between atoms: _400  and  _402
REMARK  164  A    between atoms: _402  and  _403
REMARK  165  A    between atoms: _402  and  _405
REMARK  166  A    between atoms: _405  and  _406
REMARK  167  A    between atoms: _406  and  _407
REMARK  168  A    between atoms: _407  and  _408
REMARK  169  A    between atoms: _408  and  _409
REMARK  170  A    between atoms: _413  and  _415
REMARK  171  A    between atoms: _415  and  _416
REMARK  172  A    between atoms: _415  and  _418
REMARK  173  A    between atoms: _421  and  _423
REMARK  174  A    between atoms: _423  and  _424
REMARK  175  A    between atoms: _427  and  _429
REMARK  176  A    between atoms: _429  and  _430
REMARK  177  A    between atoms: _429  and  _432
REMARK  178  A    between atoms: _432  and  _433
REMARK  179  A    between atoms: _436  and  _438
REMARK  180  A    between atoms: _438  and  _439
REMARK  181  A    between atoms: _438  and  _441
REMARK  182  A    between atoms: _441  and  _442
REMARK  183  A    between atoms: _448  and  _450
REMARK  184  A    between atoms: _450  and  _451
REMARK  185  A    between atoms: _450  and  _453
REMARK  186  A    between atoms: _453  and  _454
REMARK  187  A    between atoms: _457  and  _459
REMARK  188  A    between atoms: _459  and  _460
REMARK  189  A    between atoms: _463  and  _465
REMARK  190  A    between atoms: _465  and  _466
REMARK  191  A    between atoms: _465  and  _468
REMARK  192  A    between atoms: _468  and  _469
REMARK  193  A    between atoms: _469  and  _470
REMARK  194  A    between atoms: _470  and  _471
REMARK  195  A    between atoms: _480  and  _482
REMARK  196  A    between atoms: _482  and  _483
REMARK  197  A    between atoms: _482  and  _485
REMARK  198  A    between atoms: _485  and  _486
REMARK  199  A    between atoms: _489  and  _491
REMARK  200  A    between atoms: _491  and  _492
REMARK  201  A    between atoms: _491  and  _494
REMARK  202  A    between atoms: _494  and  _495
REMARK  203  A    between atoms: _495  and  _496
REMARK  204  A    between atoms: _498  and  _500
REMARK  205  A    between atoms: _500  and  _501
REMARK  206  A    between atoms: _500  and  _503
REMARK  207  A    between atoms: _503  and  _504
REMARK  208  A    between atoms: _509  and  _510
REMARK  209  A    between atoms: _512  and  _514
REMARK  210  A    between atoms: _514  and  _515
REMARK  211  A    between atoms: _514  and  _517
REMARK  212  A    between atoms: _517  and  _518
REMARK  213  A    between atoms: _521  and  _523
REMARK  214  A    between atoms: _523  and  _524
REMARK  215  A    between atoms: _523  and  _526
REMARK  216  A    between atoms: _526  and  _527
REMARK  217  A    between atoms: _532  and  _533
REMARK                            x       y       z     vdW  Elec       q    Type
REMARK                         _______ _______ _______ _____ _____    ______ ____
ROOT
ATOM      1  O   HOH     1      22.657  14.148  49.443  0.00  0.00    +0.000 OA
ENDROOT
TORSDOF 0
REMARK  Name = ../refined-set-2016/3zbx/3zbx_pocket.pdb
REMARK  217 active torsions:
REMARK  status: ('A' for Active; 'I' for Inactive)
REMARK    1  A    between atoms: _1  and  _3
REMARK    2  A    between atoms: _3  and  _4
REMARK    3  A    between atoms: _3  and  _6
REMARK    4  A    between atoms: _9  and  _11
REMARK    5  A    between atoms: _11  and  _12
REMARK    6  A    between atoms: _11  and  _14
REMARK    7  A    between atoms: _14  and  _15
REMARK    8  A    between atoms: _18  and  _20
REMARK    9  A    between atoms: _20  and  _21
REMARK   10  A    between atoms: _23  and  _25
REMARK   11  A    between atoms: _25  and  _26
REMARK   12  A    between atoms: _25  and  _28
REMARK   13  A    between atoms: _28  and  _29
REMARK   14  A    between atoms: _29  and  _30
REMARK   15  A    between atoms: _30  and  _31
REMARK   16  A    between atoms: _40  and  _42
REMARK   17  A    between atoms: _42  and  _43
REMARK   18  A    between atoms: _45  and  _47
REMARK   19  A    between atoms: _47  and  _48
REMARK   20  A    between atoms: _47  and  _50
REMARK   21  A    between atoms: _52  and  _54
REMARK   22  A    between atoms: _54  and  _55
REMARK   23  A    between atoms: _54  and  _57
REMARK   24  A    between atoms: _60  and  _62
REMARK   25  A    between atoms: _62  and  _63
REMARK   26  A    between atoms: _62  and  _65
REMARK   27  A    between atoms: _65  and  _66
REMARK   28  A    between atoms: _71  and  _72
REMARK   29  A    between atoms: _74  and  _76
REMARK   30  A    between atoms: _76  and  _77
REMARK   31  A    between atoms: _76  and  _79
REMARK   32  A    between atoms: _79  and  _80
REMARK   33  A    between atoms: _85  and  _87
REMARK   34  A    between atoms: _87  and  _88
REMARK   35  A    between atoms: _87  and  _90
REMARK   36  A    between atoms: _90  and  _91
REMARK   37  A    between atoms: _96  and  _98
REMARK   38  A    between atoms: _98  and  _99
REMARK   39  A    between atoms: _98  and  _101
REMARK   40  A    between atoms: _103  and  _105
REMARK   41  A    between atoms: _105  and  _106
REMARK   42  A    between atoms: _109  and  _111
REMARK   43  A    between atoms: _111  and  _112
REMARK   44  A    between atoms: _111  and  _114
REMARK   45  A    between atoms: _117  and  _119
REMARK   46  A    between atoms: _119  and  _120
REMARK   47  A    between atoms: _119  and  _122
REMARK   48  A    between atoms: _122  and  _123
REMARK   49  A    between atoms: _123  and  _124
REMARK   50  A    between atoms: _124  and  _125
REMARK   51  A    between atoms: _125  and  _126
REMARK   52  A    between atoms: _130  and  _132
REMARK   53  A    between atoms: _132  and  _133
REMARK   54  A    between atoms: _132  and  _135
REMARK   55  A    between atoms: _135  and  _136
REMARK   56  A    between atoms: _138  and  _140
REMARK   57  A    between atoms: _140  and  _141
REMARK   58  A    between atoms: _140  and  _143
REMARK   59  A    between atoms: _143  and  _144
REMARK   60  A    between atoms: _144  and  _145
REMARK   61  A    between atoms: _147  and  _149
REMARK   62  A    between atoms: _149  and  _150
REMARK   63  A    between atoms: _149  and  _152
REMARK   64  A    between atoms: _152  and  _153
REMARK   65  A    between atoms: _156  and  _158
REMARK   66  A    between atoms: _158  and  _159
REMARK   67  A    between atoms: _158  and  _161
REMARK   68  A    between atoms: _161  and  _162
REMARK   69  A    between atoms: _164  and  _166
REMARK   70  A    between atoms: _166  and  _167
REMARK   71  A    between atoms: _166  and  _169
REMARK   72  A    between atoms: _172  and  _174
REMARK   73  A    between atoms: _174  and  _175
REMARK   74  A    between atoms: _174  and  _177
REMARK   75  A    between atoms: _180  and  _182
REMARK   76  A    between atoms: _182  and  _183
REMARK   77  A    between atoms: _182  and  _185
REMARK   78  A    between atoms: _185  and  _186
REMARK   79  A    between atoms: _190  and  _191
REMARK   80  A    between atoms: _196  and  _198
REMARK   81  A    between atoms: _198  and  _199
REMARK   82  A    between atoms: _198  and  _201
REMARK   83  A    between atoms: _201  and  _202
REMARK   84  A    between atoms: _207  and  _208
REMARK   85  A    between atoms: _210  and  _212
REMARK   86  A    between atoms: _212  and  _213
REMARK   87  A    between atoms: _212  and  _215
REMARK   88  A    between atoms: _215  and  _216
REMARK   89  A    between atoms: _216  and  _217
REMARK   90  A    between atoms: _219  and  _221
REMARK   91  A    between atoms: _221  and  _222
REMARK   92  A    between atoms: _221  and  _224
REMARK   93  A    between atoms: _224  and  _225
REMARK   94  A    between atoms: _225  and  _226
REMARK   95  A    between atoms: _226  and  _227
REMARK   96  A    between atoms: _227  and  _228
REMARK   97  A    between atoms: _232  and  _234
REMARK   98  A    between atoms: _234  and  _235
REMARK   99  A    between atoms: _234  and  _237
REMARK  100  A    between atoms: _237  and  _238
REMARK  101  A    between atoms: _243  and  _245
REMARK  102  A    between atoms: _245  and  _246
REMARK  103  A    between atoms: _248  and  _250
REMARK  104  A    between atoms: _250  and  _251
REMARK  105  A    between atoms: _250  and  _253
REMARK  106  A    between atoms: _253  and  _254
REMARK  107  A    between atoms: _257  and  _259
REMARK  108  A    between atoms: _259  and  _260
REMARK  109  A    between atoms: _259  and  _262
REMARK  110  A    between atoms: _262  and  _263
REMARK  111  A    between atoms: _266  and  _268
REMARK  112  A    between atoms: _268  and  _269
REMARK  113  A    between atoms: _268  and  _271
REMARK  114  A    between atoms: _271  and  _272
REMARK  115  A    between atoms: _272  and  _273
REMARK  116  A    between atoms: _273  and  _274
REMARK  117  A    between atoms: _283  and  _285
REMARK  118  A    between atoms: _285  and  _286
REMARK  119  A    between atoms: _285  and  _288
REMARK  120  A    between atoms: _288  and  _289
REMARK  121  A    between atoms: _294  and  _296
REMARK  122  A    between atoms: _296  and  _297
REMARK  123  A    between atoms: _296  and  _299
REMARK  124  A    between atoms: _299  and  _300
REMARK  125  A    between atoms: _306  and  _308
REMARK  126  A    between atoms: _308  and  _309
REMARK  127  A    between atoms: _308  and  _311
REMARK  128  A    between atoms: _311  and  _312
REMARK  129  A    between atoms: _317  and  _319
REMARK  130  A    between atoms: _319  and  _320
REMARK  131  A    between atoms: _319  and  _322
REMARK  132  A    between atoms: _322  and  _323
REMARK  133  A    between atoms: _326  and  _328
REMARK  134  A    between atoms: _328  and  _329
REMARK  135  A    between atoms: _332  and  _334
REMARK  136  A    between atoms: _334  and  _335
REMARK  137  A    between atoms: _338  and  _340
REMARK  138  A    between atoms: _340  and  _341
REMARK  139  A    between atoms: _340  and  _343
REMARK  140  A    between atoms: _343  and  _344
REMARK  141  A    between atoms: _344  and  _345
REMARK  142  A    between atoms: _345  and  _346
REMARK  143  A    between atoms: _355  and  _357
REMARK  144  A    between atoms: _357  and  _358
REMARK  145  A    between atoms: _357  and  _360
REMARK  146  A    between atoms: _360  and  _361
REMARK  147  A    between atoms: _366  and  _368
REMARK  148  A    between atoms: _368  and  _369
REMARK  149  A    between atoms: _368  and  _371
REMARK  150  A    between atoms: _373  and  _375
REMARK  151  A    between atoms: _375  and  _376
REMARK  152  A    between atoms: _375  and  _378
REMARK  153  A    between atoms: _378  and  _379
REMARK  154  A    between atoms: _379  and  _380
REMARK  155  A    between atoms: _382  and  _384
REMARK  156  A    between atoms: _384  and  _385
REMARK  157  A    between atoms: _384  and  _387
REMARK  158  A    between atoms: _387  and  _388
REMARK  159  A    between atoms: _391  and  _393
REMARK  160  A    between atoms: _393  and  _394
REMARK  161  A    between atoms: _393  and  _396
REMARK  162  A    between atoms: _396  and  _397
REMARK  163  A    between atoms: _400  and  _402
REMARK  164  A    between atoms: _402  and  _403
REMARK  165  A    between atoms: _402  and  _405
REMARK  166  A    between atoms: _405  and  _406
REMARK  167  A    between atoms: _406  and  _407
REMARK  168  A    between atoms: _407  and  _408
REMARK  169  A    between atoms: _408  and  _409
REMARK  170  A    between atoms: _413  and  _415
REMARK  171  A    between atoms: _415  and  _416
REMARK  172  A    between atoms: _415  and  _418
REMARK  173  A    between atoms: _421  and  _423
REMARK  174  A    between atoms: _423  and  _424
REMARK  175  A    between atoms: _427  and  _429
REMARK  176  A    between atoms: _429  and  _430
REMARK  177  A    between atoms: _429  and  _432
REMARK  178  A    between atoms: _432  and  _433
REMARK  179  A    between atoms: _436  and  _438
REMARK  180  A    between atoms: _438  and  _439
REMARK  181  A    between atoms: _438  and  _441
REMARK  182  A    between atoms: _441  and  _442
REMARK  183  A    between atoms: _448  and  _450
REMARK  184  A    between atoms: _450  and  _451
REMARK  185  A    between atoms: _450  and  _453
REMARK  186  A    between atoms: _453  and  _454
REMARK  187  A    between atoms: _457  and  _459
REMARK  188  A    between atoms: _459  and  _460
REMARK  189  A    between atoms: _463  and  _465
REMARK  190  A    between atoms: _465  and  _466
REMARK  191  A    between atoms: _465  and  _468
REMARK  192  A    between atoms: _468  and  _469
REMARK  193  A    between atoms: _469  and  _470
REMARK  194  A    between atoms: _470  and  _471
REMARK  195  A    between atoms: _480  and  _482
REMARK  196  A    between atoms: _482  and  _483
REMARK  197  A    between atoms: _482  and  _485
REMARK  198  A    between atoms: _485  and  _486
REMARK  199  A    between atoms: _489  and  _491
REMARK  200  A    between atoms: _491  and  _492
REMARK  201  A    between atoms: _491  and  _494
REMARK  202  A    between atoms: _494  and  _495
REMARK  203  A    between atoms: _495  and  _496
REMARK  204  A    between atoms: _498  and  _500
REMARK  205  A    between atoms: _500  and  _501
REMARK  206  A    between atoms: _500  and  _503
REMARK  207  A    between atoms: _503  and  _504
REMARK  208  A    between atoms: _509  and  _510
REMARK  209  A    between atoms: _512  and  _514
REMARK  210  A    between atoms: _514  and  _515
REMARK  211  A    between atoms: _514  and  _517
REMARK  212  A    between atoms: _517  and  _518
REMARK  213  A    between atoms: _521  and  _523
REMARK  214  A    between atoms: _523  and  _524
REMARK  215  A    between atoms: _523  and  _526
REMARK  216  A    between atoms: _526  and  _527
REMARK  217  A    between atoms: _532  and  _533
REMARK                            x       y       z     vdW  Elec       q    Type
REMARK                         _______ _______ _______ _____ _____    ______ ____
ROOT
ATOM      1  O   HOH     1      12.892  14.296  41.987  0.00  0.00    +0.000 OA
ENDROOT
TORSDOF 0
REMARK  Name = ../refined-set-2016/3zbx/3zbx_pocket.pdb
REMARK  217 active torsions:
REMARK  status: ('A' for Active; 'I' for Inactive)
REMARK    1  A    between atoms: _1  and  _3
REMARK    2  A    between atoms: _3  and  _4
REMARK    3  A    between atoms: _3  and  _6
REMARK    4  A    between atoms: _9  and  _11
REMARK    5  A    between atoms: _11  and  _12
REMARK    6  A    between atoms: _11  and  _14
REMARK    7  A    between atoms: _14  and  _15
REMARK    8  A    between atoms: _18  and  _20
REMARK    9  A    between atoms: _20  and  _21
REMARK   10  A    between atoms: _23  and  _25
REMARK   11  A    between atoms: _25  and  _26
REMARK   12  A    between atoms: _25  and  _28
REMARK   13  A    between atoms: _28  and  _29
REMARK   14  A    between atoms: _29  and  _30
REMARK   15  A    between atoms: _30  and  _31
REMARK   16  A    between atoms: _40  and  _42
REMARK   17  A    between atoms: _42  and  _43
REMARK   18  A    between atoms: _45  and  _47
REMARK   19  A    between atoms: _47  and  _48
REMARK   20  A    between atoms: _47  and  _50
REMARK   21  A    between atoms: _52  and  _54
REMARK   22  A    between atoms: _54  and  _55
REMARK   23  A    between atoms: _54  and  _57
REMARK   24  A    between atoms: _60  and  _62
REMARK   25  A    between atoms: _62  and  _63
REMARK   26  A    between atoms: _62  and  _65
REMARK   27  A    between atoms: _65  and  _66
REMARK   28  A    between atoms: _71  and  _72
REMARK   29  A    between atoms: _74  and  _76
REMARK   30  A    between atoms: _76  and  _77
REMARK   31  A    between atoms: _76  and  _79
REMARK   32  A    between atoms: _79  and  _80
REMARK   33  A    between atoms: _85  and  _87
REMARK   34  A    between atoms: _87  and  _88
REMARK   35  A    between atoms: _87  and  _90
REMARK   36  A    between atoms: _90  and  _91
REMARK   37  A    between atoms: _96  and  _98
REMARK   38  A    between atoms: _98  and  _99
REMARK   39  A    between atoms: _98  and  _101
REMARK   40  A    between atoms: _103  and  _105
REMARK   41  A    between atoms: _105  and  _106
REMARK   42  A    between atoms: _109  and  _111
REMARK   43  A    between atoms: _111  and  _112
REMARK   44  A    between atoms: _111  and  _114
REMARK   45  A    between atoms: _117  and  _119
REMARK   46  A    between atoms: _119  and  _120
REMARK   47  A    between atoms: _119  and  _122
REMARK   48  A    between atoms: _122  and  _123
REMARK   49  A    between atoms: _123  and  _124
REMARK   50  A    between atoms: _124  and  _125
REMARK   51  A    between atoms: _125  and  _126
REMARK   52  A    between atoms: _130  and  _132
REMARK   53  A    between atoms: _132  and  _133
REMARK   54  A    between atoms: _132  and  _135
REMARK   55  A    between atoms: _135  and  _136
REMARK   56  A    between atoms: _138  and  _140
REMARK   57  A    between atoms: _140  and  _141
REMARK   58  A    between atoms: _140  and  _143
REMARK   59  A    between atoms: _143  and  _144
REMARK   60  A    between atoms: _144  and  _145
REMARK   61  A    between atoms: _147  and  _149
REMARK   62  A    between atoms: _149  and  _150
REMARK   63  A    between atoms: _149  and  _152
REMARK   64  A    between atoms: _152  and  _153
REMARK   65  A    between atoms: _156  and  _158
REMARK   66  A    between atoms: _158  and  _159
REMARK   67  A    between atoms: _158  and  _161
REMARK   68  A    between atoms: _161  and  _162
REMARK   69  A    between atoms: _164  and  _166
REMARK   70  A    between atoms: _166  and  _167
REMARK   71  A    between atoms: _166  and  _169
REMARK   72  A    between atoms: _172  and  _174
REMARK   73  A    between atoms: _174  and  _175
REMARK   74  A    between atoms: _174  and  _177
REMARK   75  A    between atoms: _180  and  _182
REMARK   76  A    between atoms: _182  and  _183
REMARK   77  A    between atoms: _182  and  _185
REMARK   78  A    between atoms: _185  and  _186
REMARK   79  A    between atoms: _190  and  _191
REMARK   80  A    between atoms: _196  and  _198
REMARK   81  A    between atoms: _198  and  _199
REMARK   82  A    between atoms: _198  and  _201
REMARK   83  A    between atoms: _201  and  _202
REMARK   84  A    between atoms: _207  and  _208
REMARK   85  A    between atoms: _210  and  _212
REMARK   86  A    between atoms: _212  and  _213
REMARK   87  A    between atoms: _212  and  _215
REMARK   88  A    between atoms: _215  and  _216
REMARK   89  A    between atoms: _216  and  _217
REMARK   90  A    between atoms: _219  and  _221
REMARK   91  A    between atoms: _221  and  _222
REMARK   92  A    between atoms: _221  and  _224
REMARK   93  A    between atoms: _224  and  _225
REMARK   94  A    between atoms: _225  and  _226
REMARK   95  A    between atoms: _226  and  _227
REMARK   96  A    between atoms: _227  and  _228
REMARK   97  A    between atoms: _232  and  _234
REMARK   98  A    between atoms: _234  and  _235
REMARK   99  A    between atoms: _234  and  _237
REMARK  100  A    between atoms: _237  and  _238
REMARK  101  A    between atoms: _243  and  _245
REMARK  102  A    between atoms: _245  and  _246
REMARK  103  A    between atoms: _248  and  _250
REMARK  104  A    between atoms: _250  and  _251
REMARK  105  A    between atoms: _250  and  _253
REMARK  106  A    between atoms: _253  and  _254
REMARK  107  A    between atoms: _257  and  _259
REMARK  108  A    between atoms: _259  and  _260
REMARK  109  A    between atoms: _259  and  _262
REMARK  110  A    between atoms: _262  and  _263
REMARK  111  A    between atoms: _266  and  _268
REMARK  112  A    between atoms: _268  and  _269
REMARK  113  A    between atoms: _268  and  _271
REMARK  114  A    between atoms: _271  and  _272
REMARK  115  A    between atoms: _272  and  _273
REMARK  116  A    between atoms: _273  and  _274
REMARK  117  A    between atoms: _283  and  _285
REMARK  118  A    between atoms: _285  and  _286
REMARK  119  A    between atoms: _285  and  _288
REMARK  120  A    between atoms: _288  and  _289
REMARK  121  A    between atoms: _294  and  _296
REMARK  122  A    between atoms: _296  and  _297
REMARK  123  A    between atoms: _296  and  _299
REMARK  124  A    between atoms: _299  and  _300
REMARK  125  A    between atoms: _306  and  _308
REMARK  126  A    between atoms: _308  and  _309
REMARK  127  A    between atoms: _308  and  _311
REMARK  128  A    between atoms: _311  and  _312
REMARK  129  A    between atoms: _317  and  _319
REMARK  130  A    between atoms: _319  and  _320
REMARK  131  A    between atoms: _319  and  _322
REMARK  132  A    between atoms: _322  and  _323
REMARK  133  A    between atoms: _326  and  _328
REMARK  134  A    between atoms: _328  and  _329
REMARK  135  A    between atoms: _332  and  _334
REMARK  136  A    between atoms: _334  and  _335
REMARK  137  A    between atoms: _338  and  _340
REMARK  138  A    between atoms: _340  and  _341
REMARK  139  A    between atoms: _340  and  _343
REMARK  140  A    between atoms: _343  and  _344
REMARK  141  A    between atoms: _344  and  _345
REMARK  142  A    between atoms: _345  and  _346
REMARK  143  A    between atoms: _355  and  _357
REMARK  144  A    between atoms: _357  and  _358
REMARK  145  A    between atoms: _357  and  _360
REMARK  146  A    between atoms: _360  and  _361
REMARK  147  A    between atoms: _366  and  _368
REMARK  148  A    between atoms: _368  and  _369
REMARK  149  A    between atoms: _368  and  _371
REMARK  150  A    between atoms: _373  and  _375
REMARK  151  A    between atoms: _375  and  _376
REMARK  152  A    between atoms: _375  and  _378
REMARK  153  A    between atoms: _378  and  _379
REMARK  154  A    between atoms: _379  and  _380
REMARK  155  A    between atoms: _382  and  _384
REMARK  156  A    between atoms: _384  and  _385
REMARK  157  A    between atoms: _384  and  _387
REMARK  158  A    between atoms: _387  and  _388
REMARK  159  A    between atoms: _391  and  _393
REMARK  160  A    between atoms: _393  and  _394
REMARK  161  A    between atoms: _393  and  _396
REMARK  162  A    between atoms: _396  and  _397
REMARK  163  A    between atoms: _400  and  _402
REMARK  164  A    between atoms: _402  and  _403
REMARK  165  A    between atoms: _402  and  _405
REMARK  166  A    between atoms: _405  and  _406
REMARK  167  A    between atoms: _406  and  _407
REMARK  168  A    between atoms: _407  and  _408
REMARK  169  A    between atoms: _408  and  _409
REMARK  170  A    between atoms: _413  and  _415
REMARK  171  A    between atoms: _415  and  _416
REMARK  172  A    between atoms: _415  and  _418
REMARK  173  A    between atoms: _421  and  _423
REMARK  174  A    between atoms: _423  and  _424
REMARK  175  A    between atoms: _427  and  _429
REMARK  176  A    between atoms: _429  and  _430
REMARK  177  A    between atoms: _429  and  _432
REMARK  178  A    between atoms: _432  and  _433
REMARK  179  A    between atoms: _436  and  _438
REMARK  180  A    between atoms: _438  and  _439
REMARK  181  A    between atoms: _438  and  _441
REMARK  182  A    between atoms: _441  and  _442
REMARK  183  A    between atoms: _448  and  _450
REMARK  184  A    between atoms: _450  and  _451
REMARK  185  A    between atoms: _450  and  _453
REMARK  186  A    between atoms: _453  and  _454
REMARK  187  A    between atoms: _457  and  _459
REMARK  188  A    between atoms: _459  and  _460
REMARK  189  A    between atoms: _463  and  _465
REMARK  190  A    between atoms: _465  and  _466
REMARK  191  A    between atoms: _465  and  _468
REMARK  192  A    between atoms: _468  and  _469
REMARK  193  A    between atoms: _469  and  _470
REMARK  194  A    between atoms: _470  and  _471
REMARK  195  A    between atoms: _480  and  _482
REMARK  196  A    between atoms: _482  and  _483
REMARK  197  A    between atoms: _482  and  _485
REMARK  198  A    between atoms: _485  and  _486
REMARK  199  A    between atoms: _489  and  _491
REMARK  200  A    between atoms: _491  and  _492
REMARK  201  A    between atoms: _491  and  _494
REMARK  202  A    between atoms: _494  and  _495
REMARK  203  A    between atoms: _495  and  _496
REMARK  204  A    between atoms: _498  and  _500
REMARK  205  A    between atoms: _500  and  _501
REMARK  206  A    between atoms: _500  and  _503
REMARK  207  A    between atoms: _503  and  _504
REMARK  208  A    between atoms: _509  and  _510
REMARK  209  A    between atoms: _512  and  _514
REMARK  210  A    between atoms: _514  and  _515
REMARK  211  A    between atoms: _514  and  _517
REMARK  212  A    between atoms: _517  and  _518
REMARK  213  A    between atoms: _521  and  _523
REMARK  214  A    between atoms: _523  and  _524
REMARK  215  A    between atoms: _523  and  _526
REMARK  216  A    between atoms: _526  and  _527
REMARK  217  A    between atoms: _532  and  _533
REMARK                            x       y       z     vdW  Elec       q    Type
REMARK                         _______ _______ _______ _____ _____    ______ ____
ROOT
ATOM      1  O   HOH     1      13.751  20.486  45.018  0.00  0.00    +0.000 OA
ENDROOT
TORSDOF 0
REMARK  Name = ../refined-set-2016/3zbx/3zbx_pocket.pdb
REMARK  217 active torsions:
REMARK  status: ('A' for Active; 'I' for Inactive)
REMARK    1  A    between atoms: _1  and  _3
REMARK    2  A    between atoms: _3  and  _4
REMARK    3  A    between atoms: _3  and  _6
REMARK    4  A    between atoms: _9  and  _11
REMARK    5  A    between atoms: _11  and  _12
REMARK    6  A    between atoms: _11  and  _14
REMARK    7  A    between atoms: _14  and  _15
REMARK    8  A    between atoms: _18  and  _20
REMARK    9  A    between atoms: _20  and  _21
REMARK   10  A    between atoms: _23  and  _25
REMARK   11  A    between atoms: _25  and  _26
REMARK   12  A    between atoms: _25  and  _28
REMARK   13  A    between atoms: _28  and  _29
REMARK   14  A    between atoms: _29  and  _30
REMARK   15  A    between atoms: _30  and  _31
REMARK   16  A    between atoms: _40  and  _42
REMARK   17  A    between atoms: _42  and  _43
REMARK   18  A    between atoms: _45  and  _47
REMARK   19  A    between atoms: _47  and  _48
REMARK   20  A    between atoms: _47  and  _50
REMARK   21  A    between atoms: _52  and  _54
REMARK   22  A    between atoms: _54  and  _55
REMARK   23  A    between atoms: _54  and  _57
REMARK   24  A    between atoms: _60  and  _62
REMARK   25  A    between atoms: _62  and  _63
REMARK   26  A    between atoms: _62  and  _65
REMARK   27  A    between atoms: _65  and  _66
REMARK   28  A    between atoms: _71  and  _72
REMARK   29  A    between atoms: _74  and  _76
REMARK   30  A    between atoms: _76  and  _77
REMARK   31  A    between atoms: _76  and  _79
REMARK   32  A    between atoms: _79  and  _80
REMARK   33  A    between atoms: _85  and  _87
REMARK   34  A    between atoms: _87  and  _88
REMARK   35  A    between atoms: _87  and  _90
REMARK   36  A    between atoms: _90  and  _91
REMARK   37  A    between atoms: _96  and  _98
REMARK   38  A    between atoms: _98  and  _99
REMARK   39  A    between atoms: _98  and  _101
REMARK   40  A    between atoms: _103  and  _105
REMARK   41  A    between atoms: _105  and  _106
REMARK   42  A    between atoms: _109  and  _111
REMARK   43  A    between atoms: _111  and  _112
REMARK   44  A    between atoms: _111  and  _114
REMARK   45  A    between atoms: _117  and  _119
REMARK   46  A    between atoms: _119  and  _120
REMARK   47  A    between atoms: _119  and  _122
REMARK   48  A    between atoms: _122  and  _123
REMARK   49  A    between atoms: _123  and  _124
REMARK   50  A    between atoms: _124  and  _125
REMARK   51  A    between atoms: _125  and  _126
REMARK   52  A    between atoms: _130  and  _132
REMARK   53  A    between atoms: _132  and  _133
REMARK   54  A    between atoms: _132  and  _135
REMARK   55  A    between atoms: _135  and  _136
REMARK   56  A    between atoms: _138  and  _140
REMARK   57  A    between atoms: _140  and  _141
REMARK   58  A    between atoms: _140  and  _143
REMARK   59  A    between atoms: _143  and  _144
REMARK   60  A    between atoms: _144  and  _145
REMARK   61  A    between atoms: _147  and  _149
REMARK   62  A    between atoms: _149  and  _150
REMARK   63  A    between atoms: _149  and  _152
REMARK   64  A    between atoms: _152  and  _153
REMARK   65  A    between atoms: _156  and  _158
REMARK   66  A    between atoms: _158  and  _159
REMARK   67  A    between atoms: _158  and  _161
REMARK   68  A    between atoms: _161  and  _162
REMARK   69  A    between atoms: _164  and  _166
REMARK   70  A    between atoms: _166  and  _167
REMARK   71  A    between atoms: _166  and  _169
REMARK   72  A    between atoms: _172  and  _174
REMARK   73  A    between atoms: _174  and  _175
REMARK   74  A    between atoms: _174  and  _177
REMARK   75  A    between atoms: _180  and  _182
REMARK   76  A    between atoms: _182  and  _183
REMARK   77  A    between atoms: _182  and  _185
REMARK   78  A    between atoms: _185  and  _186
REMARK   79  A    between atoms: _190  and  _191
REMARK   80  A    between atoms: _196  and  _198
REMARK   81  A    between atoms: _198  and  _199
REMARK   82  A    between atoms: _198  and  _201
REMARK   83  A    between atoms: _201  and  _202
REMARK   84  A    between atoms: _207  and  _208
REMARK   85  A    between atoms: _210  and  _212
REMARK   86  A    between atoms: _212  and  _213
REMARK   87  A    between atoms: _212  and  _215
REMARK   88  A    between atoms: _215  and  _216
REMARK   89  A    between atoms: _216  and  _217
REMARK   90  A    between atoms: _219  and  _221
REMARK   91  A    between atoms: _221  and  _222
REMARK   92  A    between atoms: _221  and  _224
REMARK   93  A    between atoms: _224  and  _225
REMARK   94  A    between atoms: _225  and  _226
REMARK   95  A    between atoms: _226  and  _227
REMARK   96  A    between atoms: _227  and  _228
REMARK   97  A    between atoms: _232  and  _234
REMARK   98  A    between atoms: _234  and  _235
REMARK   99  A    between atoms: _234  and  _237
REMARK  100  A    between atoms: _237  and  _238
REMARK  101  A    between atoms: _243  and  _245
REMARK  102  A    between atoms: _245  and  _246
REMARK  103  A    between atoms: _248  and  _250
REMARK  104  A    between atoms: _250  and  _251
REMARK  105  A    between atoms: _250  and  _253
REMARK  106  A    between atoms: _253  and  _254
REMARK  107  A    between atoms: _257  and  _259
REMARK  108  A    between atoms: _259  and  _260
REMARK  109  A    between atoms: _259  and  _262
REMARK  110  A    between atoms: _262  and  _263
REMARK  111  A    between atoms: _266  and  _268
REMARK  112  A    between atoms: _268  and  _269
REMARK  113  A    between atoms: _268  and  _271
REMARK  114  A    between atoms: _271  and  _272
REMARK  115  A    between atoms: _272  and  _273
REMARK  116  A    between atoms: _273  and  _274
REMARK  117  A    between atoms: _283  and  _285
REMARK  118  A    between atoms: _285  and  _286
REMARK  119  A    between atoms: _285  and  _288
REMARK  120  A    between atoms: _288  and  _289
REMARK  121  A    between atoms: _294  and  _296
REMARK  122  A    between atoms: _296  and  _297
REMARK  123  A    between atoms: _296  and  _299
REMARK  124  A    between atoms: _299  and  _300
REMARK  125  A    between atoms: _306  and  _308
REMARK  126  A    between atoms: _308  and  _309
REMARK  127  A    between atoms: _308  and  _311
REMARK  128  A    between atoms: _311  and  _312
REMARK  129  A    between atoms: _317  and  _319
REMARK  130  A    between atoms: _319  and  _320
REMARK  131  A    between atoms: _319  and  _322
REMARK  132  A    between atoms: _322  and  _323
REMARK  133  A    between atoms: _326  and  _328
REMARK  134  A    between atoms: _328  and  _329
REMARK  135  A    between atoms: _332  and  _334
REMARK  136  A    between atoms: _334  and  _335
REMARK  137  A    between atoms: _338  and  _340
REMARK  138  A    between atoms: _340  and  _341
REMARK  139  A    between atoms: _340  and  _343
REMARK  140  A    between atoms: _343  and  _344
REMARK  141  A    between atoms: _344  and  _345
REMARK  142  A    between atoms: _345  and  _346
REMARK  143  A    between atoms: _355  and  _357
REMARK  144  A    between atoms: _357  and  _358
REMARK  145  A    between atoms: _357  and  _360
REMARK  146  A    between atoms: _360  and  _361
REMARK  147  A    between atoms: _366  and  _368
REMARK  148  A    between atoms: _368  and  _369
REMARK  149  A    between atoms: _368  and  _371
REMARK  150  A    between atoms: _373  and  _375
REMARK  151  A    between atoms: _375  and  _376
REMARK  152  A    between atoms: _375  and  _378
REMARK  153  A    between atoms: _378  and  _379
REMARK  154  A    between atoms: _379  and  _380
REMARK  155  A    between atoms: _382  and  _384
REMARK  156  A    between atoms: _384  and  _385
REMARK  157  A    between atoms: _384  and  _387
REMARK  158  A    between atoms: _387  and  _388
REMARK  159  A    between atoms: _391  and  _393
REMARK  160  A    between atoms: _393  and  _394
REMARK  161  A    between atoms: _393  and  _396
REMARK  162  A    between atoms: _396  and  _397
REMARK  163  A    between atoms: _400  and  _402
REMARK  164  A    between atoms: _402  and  _403
REMARK  165  A    between atoms: _402  and  _405
REMARK  166  A    between atoms: _405  and  _406
REMARK  167  A    between atoms: _406  and  _407
REMARK  168  A    between atoms: _407  and  _408
REMARK  169  A    between atoms: _408  and  _409
REMARK  170  A    between atoms: _413  and  _415
REMARK  171  A    between atoms: _415  and  _416
REMARK  172  A    between atoms: _415  and  _418
REMARK  173  A    between atoms: _421  and  _423
REMARK  174  A    between atoms: _423  and  _424
REMARK  175  A    between atoms: _427  and  _429
REMARK  176  A    between atoms: _429  and  _430
REMARK  177  A    between atoms: _429  and  _432
REMARK  178  A    between atoms: _432  and  _433
REMARK  179  A    between atoms: _436  and  _438
REMARK  180  A    between atoms: _438  and  _439
REMARK  181  A    between atoms: _438  and  _441
REMARK  182  A    between atoms: _441  and  _442
REMARK  183  A    between atoms: _448  and  _450
REMARK  184  A    between atoms: _450  and  _451
REMARK  185  A    between atoms: _450  and  _453
REMARK  186  A    between atoms: _453  and  _454
REMARK  187  A    between atoms: _457  and  _459
REMARK  188  A    between atoms: _459  and  _460
REMARK  189  A    between atoms: _463  and  _465
REMARK  190  A    between atoms: _465  and  _466
REMARK  191  A    between atoms: _465  and  _468
REMARK  192  A    between atoms: _468  and  _469
REMARK  193  A    between atoms: _469  and  _470
REMARK  194  A    between atoms: _470  and  _471
REMARK  195  A    between atoms: _480  and  _482
REMARK  196  A    between atoms: _482  and  _483
REMARK  197  A    between atoms: _482  and  _485
REMARK  198  A    between atoms: _485  and  _486
REMARK  199  A    between atoms: _489  and  _491
REMARK  200  A    between atoms: _491  and  _492
REMARK  201  A    between atoms: _491  and  _494
REMARK  202  A    between atoms: _494  and  _495
REMARK  203  A    between atoms: _495  and  _496
REMARK  204  A    between atoms: _498  and  _500
REMARK  205  A    between atoms: _500  and  _501
REMARK  206  A    between atoms: _500  and  _503
REMARK  207  A    between atoms: _503  and  _504
REMARK  208  A    between atoms: _509  and  _510
REMARK  209  A    between atoms: _512  and  _514
REMARK  210  A    between atoms: _514  and  _515
REMARK  211  A    between atoms: _514  and  _517
REMARK  212  A    between atoms: _517  and  _518
REMARK  213  A    between atoms: _521  and  _523
REMARK  214  A    between atoms: _523  and  _524
REMARK  215  A    between atoms: _523  and  _526
REMARK  216  A    between atoms: _526  and  _527
REMARK  217  A    between atoms: _532  and  _533
REMARK                            x       y       z     vdW  Elec       q    Type
REMARK                         _______ _______ _______ _____ _____    ______ ____
ROOT
ATOM      1  O   HOH     1      15.614  13.528  48.666  0.00  0.00    +0.000 OA
ENDROOT
TORSDOF 0
REMARK  Name = ../refined-set-2016/3zbx/3zbx_pocket.pdb
REMARK  217 active torsions:
REMARK  status: ('A' for Active; 'I' for Inactive)
REMARK    1  A    between atoms: _1  and  _3
REMARK    2  A    between atoms: _3  and  _4
REMARK    3  A    between atoms: _3  and  _6
REMARK    4  A    between atoms: _9  and  _11
REMARK    5  A    between atoms: _11  and  _12
REMARK    6  A    between atoms: _11  and  _14
REMARK    7  A    between atoms: _14  and  _15
REMARK    8  A    between atoms: _18  and  _20
REMARK    9  A    between atoms: _20  and  _21
REMARK   10  A    between atoms: _23  and  _25
REMARK   11  A    between atoms: _25  and  _26
REMARK   12  A    between atoms: _25  and  _28
REMARK   13  A    between atoms: _28  and  _29
REMARK   14  A    between atoms: _29  and  _30
REMARK   15  A    between atoms: _30  and  _31
REMARK   16  A    between atoms: _40  and  _42
REMARK   17  A    between atoms: _42  and  _43
REMARK   18  A    between atoms: _45  and  _47
REMARK   19  A    between atoms: _47  and  _48
REMARK   20  A    between atoms: _47  and  _50
REMARK   21  A    between atoms: _52  and  _54
REMARK   22  A    between atoms: _54  and  _55
REMARK   23  A    between atoms: _54  and  _57
REMARK   24  A    between atoms: _60  and  _62
REMARK   25  A    between atoms: _62  and  _63
REMARK   26  A    between atoms: _62  and  _65
REMARK   27  A    between atoms: _65  and  _66
REMARK   28  A    between atoms: _71  and  _72
REMARK   29  A    between atoms: _74  and  _76
REMARK   30  A    between atoms: _76  and  _77
REMARK   31  A    between atoms: _76  and  _79
REMARK   32  A    between atoms: _79  and  _80
REMARK   33  A    between atoms: _85  and  _87
REMARK   34  A    between atoms: _87  and  _88
REMARK   35  A    between atoms: _87  and  _90
REMARK   36  A    between atoms: _90  and  _91
REMARK   37  A    between atoms: _96  and  _98
REMARK   38  A    between atoms: _98  and  _99
REMARK   39  A    between atoms: _98  and  _101
REMARK   40  A    between atoms: _103  and  _105
REMARK   41  A    between atoms: _105  and  _106
REMARK   42  A    between atoms: _109  and  _111
REMARK   43  A    between atoms: _111  and  _112
REMARK   44  A    between atoms: _111  and  _114
REMARK   45  A    between atoms: _117  and  _119
REMARK   46  A    between atoms: _119  and  _120
REMARK   47  A    between atoms: _119  and  _122
REMARK   48  A    between atoms: _122  and  _123
REMARK   49  A    between atoms: _123  and  _124
REMARK   50  A    between atoms: _124  and  _125
REMARK   51  A    between atoms: _125  and  _126
REMARK   52  A    between atoms: _130  and  _132
REMARK   53  A    between atoms: _132  and  _133
REMARK   54  A    between atoms: _132  and  _135
REMARK   55  A    between atoms: _135  and  _136
REMARK   56  A    between atoms: _138  and  _140
REMARK   57  A    between atoms: _140  and  _141
REMARK   58  A    between atoms: _140  and  _143
REMARK   59  A    between atoms: _143  and  _144
REMARK   60  A    between atoms: _144  and  _145
REMARK   61  A    between atoms: _147  and  _149
REMARK   62  A    between atoms: _149  and  _150
REMARK   63  A    between atoms: _149  and  _152
REMARK   64  A    between atoms: _152  and  _153
REMARK   65  A    between atoms: _156  and  _158
REMARK   66  A    between atoms: _158  and  _159
REMARK   67  A    between atoms: _158  and  _161
REMARK   68  A    between atoms: _161  and  _162
REMARK   69  A    between atoms: _164  and  _166
REMARK   70  A    between atoms: _166  and  _167
REMARK   71  A    between atoms: _166  and  _169
REMARK   72  A    between atoms: _172  and  _174
REMARK   73  A    between atoms: _174  and  _175
REMARK   74  A    between atoms: _174  and  _177
REMARK   75  A    between atoms: _180  and  _182
REMARK   76  A    between atoms: _182  and  _183
REMARK   77  A    between atoms: _182  and  _185
REMARK   78  A    between atoms: _185  and  _186
REMARK   79  A    between atoms: _190  and  _191
REMARK   80  A    between atoms: _196  and  _198
REMARK   81  A    between atoms: _198  and  _199
REMARK   82  A    between atoms: _198  and  _201
REMARK   83  A    between atoms: _201  and  _202
REMARK   84  A    between atoms: _207  and  _208
REMARK   85  A    between atoms: _210  and  _212
REMARK   86  A    between atoms: _212  and  _213
REMARK   87  A    between atoms: _212  and  _215
REMARK   88  A    between atoms: _215  and  _216
REMARK   89  A    between atoms: _216  and  _217
REMARK   90  A    between atoms: _219  and  _221
REMARK   91  A    between atoms: _221  and  _222
REMARK   92  A    between atoms: _221  and  _224
REMARK   93  A    between atoms: _224  and  _225
REMARK   94  A    between atoms: _225  and  _226
REMARK   95  A    between atoms: _226  and  _227
REMARK   96  A    between atoms: _227  and  _228
REMARK   97  A    between atoms: _232  and  _234
REMARK   98  A    between atoms: _234  and  _235
REMARK   99  A    between atoms: _234  and  _237
REMARK  100  A    between atoms: _237  and  _238
REMARK  101  A    between atoms: _243  and  _245
REMARK  102  A    between atoms: _245  and  _246
REMARK  103  A    between atoms: _248  and  _250
REMARK  104  A    between atoms: _250  and  _251
REMARK  105  A    between atoms: _250  and  _253
REMARK  106  A    between atoms: _253  and  _254
REMARK  107  A    between atoms: _257  and  _259
REMARK  108  A    between atoms: _259  and  _260
REMARK  109  A    between atoms: _259  and  _262
REMARK  110  A    between atoms: _262  and  _263
REMARK  111  A    between atoms: _266  and  _268
REMARK  112  A    between atoms: _268  and  _269
REMARK  113  A    between atoms: _268  and  _271
REMARK  114  A    between atoms: _271  and  _272
REMARK  115  A    between atoms: _272  and  _273
REMARK  116  A    between atoms: _273  and  _274
REMARK  117  A    between atoms: _283  and  _285
REMARK  118  A    between atoms: _285  and  _286
REMARK  119  A    between atoms: _285  and  _288
REMARK  120  A    between atoms: _288  and  _289
REMARK  121  A    between atoms: _294  and  _296
REMARK  122  A    between atoms: _296  and  _297
REMARK  123  A    between atoms: _296  and  _299
REMARK  124  A    between atoms: _299  and  _300
REMARK  125  A    between atoms: _306  and  _308
REMARK  126  A    between atoms: _308  and  _309
REMARK  127  A    between atoms: _308  and  _311
REMARK  128  A    between atoms: _311  and  _312
REMARK  129  A    between atoms: _317  and  _319
REMARK  130  A    between atoms: _319  and  _320
REMARK  131  A    between atoms: _319  and  _322
REMARK  132  A    between atoms: _322  and  _323
REMARK  133  A    between atoms: _326  and  _328
REMARK  134  A    between atoms: _328  and  _329
REMARK  135  A    between atoms: _332  and  _334
REMARK  136  A    between atoms: _334  and  _335
REMARK  137  A    between atoms: _338  and  _340
REMARK  138  A    between atoms: _340  and  _341
REMARK  139  A    between atoms: _340  and  _343
REMARK  140  A    between atoms: _343  and  _344
REMARK  141  A    between atoms: _344  and  _345
REMARK  142  A    between atoms: _345  and  _346
REMARK  143  A    between atoms: _355  and  _357
REMARK  144  A    between atoms: _357  and  _358
REMARK  145  A    between atoms: _357  and  _360
REMARK  146  A    between atoms: _360  and  _361
REMARK  147  A    between atoms: _366  and  _368
REMARK  148  A    between atoms: _368  and  _369
REMARK  149  A    between atoms: _368  and  _371
REMARK  150  A    between atoms: _373  and  _375
REMARK  151  A    between atoms: _375  and  _376
REMARK  152  A    between atoms: _375  and  _378
REMARK  153  A    between atoms: _378  and  _379
REMARK  154  A    between atoms: _379  and  _380
REMARK  155  A    between atoms: _382  and  _384
REMARK  156  A    between atoms: _384  and  _385
REMARK  157  A    between atoms: _384  and  _387
REMARK  158  A    between atoms: _387  and  _388
REMARK  159  A    between atoms: _391  and  _393
REMARK  160  A    between atoms: _393  and  _394
REMARK  161  A    between atoms: _393  and  _396
REMARK  162  A    between atoms: _396  and  _397
REMARK  163  A    between atoms: _400  and  _402
REMARK  164  A    between atoms: _402  and  _403
REMARK  165  A    between atoms: _402  and  _405
REMARK  166  A    between atoms: _405  and  _406
REMARK  167  A    between atoms: _406  and  _407
REMARK  168  A    between atoms: _407  and  _408
REMARK  169  A    between atoms: _408  and  _409
REMARK  170  A    between atoms: _413  and  _415
REMARK  171  A    between atoms: _415  and  _416
REMARK  172  A    between atoms: _415  and  _418
REMARK  173  A    between atoms: _421  and  _423
REMARK  174  A    between atoms: _423  and  _424
REMARK  175  A    between atoms: _427  and  _429
REMARK  176  A    between atoms: _429  and  _430
REMARK  177  A    between atoms: _429  and  _432
REMARK  178  A    between atoms: _432  and  _433
REMARK  179  A    between atoms: _436  and  _438
REMARK  180  A    between atoms: _438  and  _439
REMARK  181  A    between atoms: _438  and  _441
REMARK  182  A    between atoms: _441  and  _442
REMARK  183  A    between atoms: _448  and  _450
REMARK  184  A    between atoms: _450  and  _451
REMARK  185  A    between atoms: _450  and  _453
REMARK  186  A    between atoms: _453  and  _454
REMARK  187  A    between atoms: _457  and  _459
REMARK  188  A    between atoms: _459  and  _460
REMARK  189  A    between atoms: _463  and  _465
REMARK  190  A    between atoms: _465  and  _466
REMARK  191  A    between atoms: _465  and  _468
REMARK  192  A    between atoms: _468  and  _469
REMARK  193  A    between atoms: _469  and  _470
REMARK  194  A    between atoms: _470  and  _471
REMARK  195  A    between atoms: _480  and  _482
REMARK  196  A    between atoms: _482  and  _483
REMARK  197  A    between atoms: _482  and  _485
REMARK  198  A    between atoms: _485  and  _486
REMARK  199  A    between atoms: _489  and  _491
REMARK  200  A    between atoms: _491  and  _492
REMARK  201  A    between atoms: _491  and  _494
REMARK  202  A    between atoms: _494  and  _495
REMARK  203  A    between atoms: _495  and  _496
REMARK  204  A    between atoms: _498  and  _500
REMARK  205  A    between atoms: _500  and  _501
REMARK  206  A    between atoms: _500  and  _503
REMARK  207  A    between atoms: _503  and  _504
REMARK  208  A    between atoms: _509  and  _510
REMARK  209  A    between atoms: _512  and  _514
REMARK  210  A    between atoms: _514  and  _515
REMARK  211  A    between atoms: _514  and  _517
REMARK  212  A    between atoms: _517  and  _518
REMARK  213  A    between atoms: _521  and  _523
REMARK  214  A    between atoms: _523  and  _524
REMARK  215  A    between atoms: _523  and  _526
REMARK  216  A    between atoms: _526  and  _527
REMARK  217  A    between atoms: _532  and  _533
REMARK                            x       y       z     vdW  Elec       q    Type
REMARK                         _______ _______ _______ _____ _____    ______ ____
ROOT
ATOM      1  O   HOH     1      11.717  11.638  48.953  0.00  0.00    +0.000 OA
ENDROOT
TORSDOF 0
