REMARK  Name = ../refined-set-2016/3gnw/3gnw_pocket.pdb
REMARK  284 active torsions:
REMARK  status: ('A' for Active; 'I' for Inactive)
REMARK    1  A    between atoms: _1  and  _3
REMARK    2  A    between atoms: _3  and  _4
REMARK    3  A    between atoms: _3  and  _6
REMARK    4  A    between atoms: _6  and  _7
REMARK    5  A    between atoms: _7  and  _8
REMARK    6  A    between atoms: _8  and  _9
REMARK    7  A    between atoms: _9  and  _10
REMARK    8  A    between atoms: _14  and  _16
REMARK    9  A    between atoms: _16  and  _17
REMARK   10  A    between atoms: _16  and  _19
REMARK   11  A    between atoms: _19  and  _20
REMARK   12  A    between atoms: _20  and  _21
REMARK   13  A    between atoms: _24  and  _26
REMARK   14  A    between atoms: _26  and  _27
REMARK   15  A    between atoms: _26  and  _29
REMARK   16  A    between atoms: _29  and  _30
REMARK   17  A    between atoms: _36  and  _38
REMARK   18  A    between atoms: _38  and  _39
REMARK   19  A    between atoms: _38  and  _41
REMARK   20  A    between atoms: _41  and  _42
REMARK   21  A    between atoms: _42  and  _43
REMARK   22  A    between atoms: _43  and  _44
REMARK   23  A    between atoms: _53  and  _55
REMARK   24  A    between atoms: _55  and  _56
REMARK   25  A    between atoms: _55  and  _58
REMARK   26  A    between atoms: _58  and  _59
REMARK   27  A    between atoms: _62  and  _64
REMARK   28  A    between atoms: _64  and  _65
REMARK   29  A    between atoms: _67  and  _69
REMARK   30  A    between atoms: _69  and  _70
REMARK   31  A    between atoms: _69  and  _72
REMARK   32  A    between atoms: _72  and  _73
REMARK   33  A    between atoms: _79  and  _81
REMARK   34  A    between atoms: _81  and  _82
REMARK   35  A    between atoms: _81  and  _84
REMARK   36  A    between atoms: _84  and  _85
REMARK   37  A    between atoms: _90  and  _91
REMARK   38  A    between atoms: _93  and  _95
REMARK   39  A    between atoms: _95  and  _96
REMARK   40  A    between atoms: _95  and  _98
REMARK   41  A    between atoms: _98  and  _99
REMARK   42  A    between atoms: _102  and  _103
REMARK   43  A    between atoms: _108  and  _110
REMARK   44  A    between atoms: _110  and  _111
REMARK   45  A    between atoms: _110  and  _113
REMARK   46  A    between atoms: _113  and  _114
REMARK   47  A    between atoms: _114  and  _115
REMARK   48  A    between atoms: _115  and  _116
REMARK   49  A    between atoms: _116  and  _117
REMARK   50  A    between atoms: _121  and  _123
REMARK   51  A    between atoms: _123  and  _124
REMARK   52  A    between atoms: _123  and  _126
REMARK   53  A    between atoms: _126  and  _127
REMARK   54  A    between atoms: _127  and  _128
REMARK   55  A    between atoms: _133  and  _135
REMARK   56  A    between atoms: _135  and  _136
REMARK   57  A    between atoms: _135  and  _138
REMARK   58  A    between atoms: _138  and  _139
REMARK   59  A    between atoms: _139  and  _140
REMARK   60  A    between atoms: _140  and  _141
REMARK   61  A    between atoms: _150  and  _152
REMARK   62  A    between atoms: _152  and  _153
REMARK   63  A    between atoms: _152  and  _155
REMARK   64  A    between atoms: _158  and  _160
REMARK   65  A    between atoms: _160  and  _161
REMARK   66  A    between atoms: _160  and  _163
REMARK   67  A    between atoms: _163  and  _164
REMARK   68  A    between atoms: _167  and  _169
REMARK   69  A    between atoms: _169  and  _170
REMARK   70  A    between atoms: _169  and  _172
REMARK   71  A    between atoms: _172  and  _173
REMARK   72  A    between atoms: _179  and  _181
REMARK   73  A    between atoms: _181  and  _182
REMARK   74  A    between atoms: _181  and  _184
REMARK   75  A    between atoms: _184  and  _185
REMARK   76  A    between atoms: _188  and  _190
REMARK   77  A    between atoms: _190  and  _191
REMARK   78  A    between atoms: _190  and  _193
REMARK   79  A    between atoms: _193  and  _194
REMARK   80  A    between atoms: _196  and  _198
REMARK   81  A    between atoms: _198  and  _199
REMARK   82  A    between atoms: _198  and  _201
REMARK   83  A    between atoms: _201  and  _202
REMARK   84  A    between atoms: _205  and  _207
REMARK   85  A    between atoms: _207  and  _208
REMARK   86  A    between atoms: _207  and  _210
REMARK   87  A    between atoms: _210  and  _211
REMARK   88  A    between atoms: _213  and  _215
REMARK   89  A    between atoms: _215  and  _216
REMARK   90  A    between atoms: _215  and  _218
REMARK   91  A    between atoms: _218  and  _219
REMARK   92  A    between atoms: _224  and  _226
REMARK   93  A    between atoms: _226  and  _227
REMARK   94  A    between atoms: _226  and  _229
REMARK   95  A    between atoms: _229  and  _230
REMARK   96  A    between atoms: _233  and  _235
REMARK   97  A    between atoms: _235  and  _236
REMARK   98  A    between atoms: _235  and  _238
REMARK   99  A    between atoms: _238  and  _239
REMARK  100  A    between atoms: _244  and  _246
REMARK  101  A    between atoms: _246  and  _247
REMARK  102  A    between atoms: _249  and  _251
REMARK  103  A    between atoms: _251  and  _252
REMARK  104  A    between atoms: _251  and  _254
REMARK  105  A    between atoms: _254  and  _255
REMARK  106  A    between atoms: _258  and  _260
REMARK  107  A    between atoms: _260  and  _261
REMARK  108  A    between atoms: _260  and  _263
REMARK  109  A    between atoms: _263  and  _264
REMARK  110  A    between atoms: _267  and  _269
REMARK  111  A    between atoms: _269  and  _270
REMARK  112  A    between atoms: _269  and  _272
REMARK  113  A    between atoms: _272  and  _273
REMARK  114  A    between atoms: _276  and  _278
REMARK  115  A    between atoms: _278  and  _279
REMARK  116  A    between atoms: _278  and  _281
REMARK  117  A    between atoms: _281  and  _282
REMARK  118  A    between atoms: _284  and  _286
REMARK  119  A    between atoms: _286  and  _287
REMARK  120  A    between atoms: _286  and  _289
REMARK  121  A    between atoms: _291  and  _293
REMARK  122  A    between atoms: _293  and  _294
REMARK  123  A    between atoms: _293  and  _296
REMARK  124  A    between atoms: _296  and  _297
REMARK  125  A    between atoms: _299  and  _301
REMARK  126  A    between atoms: _301  and  _302
REMARK  127  A    between atoms: _301  and  _304
REMARK  128  A    between atoms: _304  and  _305
REMARK  129  A    between atoms: _307  and  _309
REMARK  130  A    between atoms: _309  and  _310
REMARK  131  A    between atoms: _309  and  _312
REMARK  132  A    between atoms: _312  and  _313
REMARK  133  A    between atoms: _318  and  _320
REMARK  134  A    between atoms: _320  and  _321
REMARK  135  A    between atoms: _320  and  _323
REMARK  136  A    between atoms: _323  and  _324
REMARK  137  A    between atoms: _329  and  _330
REMARK  138  A    between atoms: _332  and  _334
REMARK  139  A    between atoms: _334  and  _335
REMARK  140  A    between atoms: _334  and  _337
REMARK  141  A    between atoms: _337  and  _338
REMARK  142  A    between atoms: _341  and  _343
REMARK  143  A    between atoms: _343  and  _344
REMARK  144  A    between atoms: _343  and  _346
REMARK  145  A    between atoms: _346  and  _347
REMARK  146  A    between atoms: _350  and  _352
REMARK  147  A    between atoms: _352  and  _353
REMARK  148  A    between atoms: _352  and  _355
REMARK  149  A    between atoms: _355  and  _356
REMARK  150  A    between atoms: _356  and  _357
REMARK  151  A    between atoms: _357  and  _358
REMARK  152  A    between atoms: _367  and  _369
REMARK  153  A    between atoms: _369  and  _370
REMARK  154  A    between atoms: _369  and  _372
REMARK  155  A    between atoms: _372  and  _373
REMARK  156  A    between atoms: _377  and  _378
REMARK  157  A    between atoms: _383  and  _385
REMARK  158  A    between atoms: _385  and  _386
REMARK  159  A    between atoms: _385  and  _388
REMARK  160  A    between atoms: _388  and  _389
REMARK  161  A    between atoms: _389  and  _390
REMARK  162  A    between atoms: _390  and  _391
REMARK  163  A    between atoms: _400  and  _402
REMARK  164  A    between atoms: _402  and  _403
REMARK  165  A    between atoms: _402  and  _405
REMARK  166  A    between atoms: _405  and  _406
REMARK  167  A    between atoms: _406  and  _407
REMARK  168  A    between atoms: _410  and  _412
REMARK  169  A    between atoms: _412  and  _413
REMARK  170  A    between atoms: _412  and  _415
REMARK  171  A    between atoms: _415  and  _416
REMARK  172  A    between atoms: _419  and  _421
REMARK  173  A    between atoms: _421  and  _422
REMARK  174  A    between atoms: _421  and  _424
REMARK  175  A    between atoms: _424  and  _425
REMARK  176  A    between atoms: _430  and  _432
REMARK  177  A    between atoms: _432  and  _433
REMARK  178  A    between atoms: _432  and  _435
REMARK  179  A    between atoms: _435  and  _436
REMARK  180  A    between atoms: _438  and  _440
REMARK  181  A    between atoms: _440  and  _441
REMARK  182  A    between atoms: _440  and  _443
REMARK  183  A    between atoms: _443  and  _444
REMARK  184  A    between atoms: _454  and  _456
REMARK  185  A    between atoms: _456  and  _457
REMARK  186  A    between atoms: _456  and  _459
REMARK  187  A    between atoms: _459  and  _460
REMARK  188  A    between atoms: _463  and  _465
REMARK  189  A    between atoms: _465  and  _466
REMARK  190  A    between atoms: _468  and  _470
REMARK  191  A    between atoms: _470  and  _471
REMARK  192  A    between atoms: _470  and  _473
REMARK  193  A    between atoms: _473  and  _474
REMARK  194  A    between atoms: _479  and  _481
REMARK  195  A    between atoms: _481  and  _482
REMARK  196  A    between atoms: _481  and  _484
REMARK  197  A    between atoms: _484  and  _485
REMARK  198  A    between atoms: _488  and  _490
REMARK  199  A    between atoms: _490  and  _491
REMARK  200  A    between atoms: _490  and  _493
REMARK  201  A    between atoms: _493  and  _494
REMARK  202  A    between atoms: _497  and  _499
REMARK  203  A    between atoms: _499  and  _500
REMARK  204  A    between atoms: _499  and  _502
REMARK  205  A    between atoms: _502  and  _503
REMARK  206  A    between atoms: _503  and  _504
REMARK  207  A    between atoms: _506  and  _508
REMARK  208  A    between atoms: _508  and  _509
REMARK  209  A    between atoms: _508  and  _511
REMARK  210  A    between atoms: _511  and  _512
REMARK  211  A    between atoms: _517  and  _518
REMARK  212  A    between atoms: _520  and  _522
REMARK  213  A    between atoms: _522  and  _523
REMARK  214  A    between atoms: _527  and  _528
REMARK  215  A    between atoms: _533  and  _535
REMARK  216  A    between atoms: _535  and  _536
REMARK  217  A    between atoms: _535  and  _538
REMARK  218  A    between atoms: _538  and  _539
REMARK  219  A    between atoms: _542  and  _544
REMARK  220  A    between atoms: _544  and  _545
REMARK  221  A    between atoms: _544  and  _547
REMARK  222  A    between atoms: _547  and  _548
REMARK  223  A    between atoms: _558  and  _560
REMARK  224  A    between atoms: _560  and  _561
REMARK  225  A    between atoms: _560  and  _563
REMARK  226  A    between atoms: _563  and  _564
REMARK  227  A    between atoms: _567  and  _569
REMARK  228  A    between atoms: _569  and  _570
REMARK  229  A    between atoms: _569  and  _572
REMARK  230  A    between atoms: _574  and  _576
REMARK  231  A    between atoms: _576  and  _577
REMARK  232  A    between atoms: _576  and  _579
REMARK  233  A    between atoms: _579  and  _580
REMARK  234  A    between atoms: _580  and  _581
REMARK  235  A    between atoms: _586  and  _588
REMARK  236  A    between atoms: _588  and  _589
REMARK  237  A    between atoms: _588  and  _591
REMARK  238  A    between atoms: _591  and  _592
REMARK  239  A    between atoms: _595  and  _597
REMARK  240  A    between atoms: _597  and  _598
REMARK  241  A    between atoms: _597  and  _600
REMARK  242  A    between atoms: _600  and  _601
REMARK  243  A    between atoms: _606  and  _607
REMARK  244  A    between atoms: _609  and  _611
REMARK  245  A    between atoms: _611  and  _612
REMARK  246  A    between atoms: _614  and  _616
REMARK  247  A    between atoms: _616  and  _617
REMARK  248  A    between atoms: _620  and  _622
REMARK  249  A    between atoms: _622  and  _623
REMARK  250  A    between atoms: _622  and  _625
REMARK  251  A    between atoms: _627  and  _629
REMARK  252  A    between atoms: _629  and  _630
REMARK  253  A    between atoms: _629  and  _632
REMARK  254  A    between atoms: _632  and  _633
REMARK  255  A    between atoms: _638  and  _639
REMARK  256  A    between atoms: _641  and  _643
REMARK  257  A    between atoms: _643  and  _644
REMARK  258  A    between atoms: _643  and  _646
REMARK  259  A    between atoms: _646  and  _647
REMARK  260  A    between atoms: _650  and  _652
REMARK  261  A    between atoms: _652  and  _653
REMARK  262  A    between atoms: _652  and  _655
REMARK  263  A    between atoms: _655  and  _656
REMARK  264  A    between atoms: _661  and  _663
REMARK  265  A    between atoms: _663  and  _664
REMARK  266  A    between atoms: _663  and  _666
REMARK  267  A    between atoms: _666  and  _667
REMARK  268  A    between atoms: _673  and  _675
REMARK  269  A    between atoms: _675  and  _676
REMARK  270  A    between atoms: _679  and  _681
REMARK  271  A    between atoms: _681  and  _682
REMARK  272  A    between atoms: _684  and  _686
REMARK  273  A    between atoms: _686  and  _687
REMARK  274  A    between atoms: _686  and  _689
REMARK  275  A    between atoms: _689  and  _690
REMARK  276  A    between atoms: _695  and  _696
REMARK  277  A    between atoms: _698  and  _700
REMARK  278  A    between atoms: _700  and  _701
REMARK  279  A    between atoms: _700  and  _703
REMARK  280  A    between atoms: _703  and  _704
REMARK  281  A    between atoms: _706  and  _708
REMARK  282  A    between atoms: _708  and  _709
REMARK  283  A    between atoms: _711  and  _713
REMARK  284  A    between atoms: _713  and  _714
REMARK                            x       y       z     vdW  Elec       q    Type
REMARK                         _______ _______ _______ _____ _____    ______ ____
ROOT
ATOM      1  CG  LYS A   1      29.779  -3.576  45.778  0.00  0.00    -0.000 C 
ENDROOT
BRANCH   1   2
ATOM      2  CB  LYS A   1      31.198  -3.960  46.205  0.00  0.00    +0.025 C 
BRANCH   2   3
ATOM      3  CA  LYS A   1      31.248  -5.395  46.740  0.00  0.00    +0.133 C 
BRANCH   3   4
ATOM      4  N   LYS A   1      32.217  -5.516  47.847  0.00  0.00    -0.239 NA
ATOM      5  H   LYS A   1      32.921  -4.763  47.984  0.00  0.00    +0.142 HD
ENDBRANCH   3   4
BRANCH   3   6
ATOM      6  C   LYS A   1      31.571  -6.331  45.595  0.00  0.00    +0.224 C 
ATOM      7  O   LYS A   1      32.738  -6.525  45.279  0.00  0.00    -0.287 OA
ENDBRANCH   3   6
ENDBRANCH   2   3
ENDBRANCH   1   2
BRANCH   1   8
ATOM      8  CD  LYS A   1      29.723  -2.241  45.067  0.00  0.00    -0.024 C 
BRANCH   8   9
ATOM      9  CE  LYS A   1      28.401  -2.117  44.235  0.00  0.00    -0.086 C 
BRANCH   9  10
ATOM     10  NZ  LYS A   1      27.188  -2.719  44.952  0.00  0.00    +0.380 N 
ATOM     11  HZ1 LYS A   1      27.042  -2.227  45.856  0.00  0.00    -0.089 HD
ATOM     12  HZ2 LYS A   1      27.358  -3.729  45.130  0.00  0.00    -0.089 HD
ATOM     13  HZ3 LYS A   1      26.344  -2.608  44.355  0.00  0.00    -0.089 HD
ENDBRANCH   9  10
ENDBRANCH   8   9
ENDBRANCH   1   8
TORSDOF 7
REMARK  Name = ../refined-set-2016/3gnw/3gnw_pocket.pdb
REMARK  284 active torsions:
REMARK  status: ('A' for Active; 'I' for Inactive)
REMARK    1  A    between atoms: _1  and  _3
REMARK    2  A    between atoms: _3  and  _4
REMARK    3  A    between atoms: _3  and  _6
REMARK    4  A    between atoms: _6  and  _7
REMARK    5  A    between atoms: _7  and  _8
REMARK    6  A    between atoms: _8  and  _9
REMARK    7  A    between atoms: _9  and  _10
REMARK    8  A    between atoms: _14  and  _16
REMARK    9  A    between atoms: _16  and  _17
REMARK   10  A    between atoms: _16  and  _19
REMARK   11  A    between atoms: _19  and  _20
REMARK   12  A    between atoms: _20  and  _21
REMARK   13  A    between atoms: _24  and  _26
REMARK   14  A    between atoms: _26  and  _27
REMARK   15  A    between atoms: _26  and  _29
REMARK   16  A    between atoms: _29  and  _30
REMARK   17  A    between atoms: _36  and  _38
REMARK   18  A    between atoms: _38  and  _39
REMARK   19  A    between atoms: _38  and  _41
REMARK   20  A    between atoms: _41  and  _42
REMARK   21  A    between atoms: _42  and  _43
REMARK   22  A    between atoms: _43  and  _44
REMARK   23  A    between atoms: _53  and  _55
REMARK   24  A    between atoms: _55  and  _56
REMARK   25  A    between atoms: _55  and  _58
REMARK   26  A    between atoms: _58  and  _59
REMARK   27  A    between atoms: _62  and  _64
REMARK   28  A    between atoms: _64  and  _65
REMARK   29  A    between atoms: _67  and  _69
REMARK   30  A    between atoms: _69  and  _70
REMARK   31  A    between atoms: _69  and  _72
REMARK   32  A    between atoms: _72  and  _73
REMARK   33  A    between atoms: _79  and  _81
REMARK   34  A    between atoms: _81  and  _82
REMARK   35  A    between atoms: _81  and  _84
REMARK   36  A    between atoms: _84  and  _85
REMARK   37  A    between atoms: _90  and  _91
REMARK   38  A    between atoms: _93  and  _95
REMARK   39  A    between atoms: _95  and  _96
REMARK   40  A    between atoms: _95  and  _98
REMARK   41  A    between atoms: _98  and  _99
REMARK   42  A    between atoms: _102  and  _103
REMARK   43  A    between atoms: _108  and  _110
REMARK   44  A    between atoms: _110  and  _111
REMARK   45  A    between atoms: _110  and  _113
REMARK   46  A    between atoms: _113  and  _114
REMARK   47  A    between atoms: _114  and  _115
REMARK   48  A    between atoms: _115  and  _116
REMARK   49  A    between atoms: _116  and  _117
REMARK   50  A    between atoms: _121  and  _123
REMARK   51  A    between atoms: _123  and  _124
REMARK   52  A    between atoms: _123  and  _126
REMARK   53  A    between atoms: _126  and  _127
REMARK   54  A    between atoms: _127  and  _128
REMARK   55  A    between atoms: _133  and  _135
REMARK   56  A    between atoms: _135  and  _136
REMARK   57  A    between atoms: _135  and  _138
REMARK   58  A    between atoms: _138  and  _139
REMARK   59  A    between atoms: _139  and  _140
REMARK   60  A    between atoms: _140  and  _141
REMARK   61  A    between atoms: _150  and  _152
REMARK   62  A    between atoms: _152  and  _153
REMARK   63  A    between atoms: _152  and  _155
REMARK   64  A    between atoms: _158  and  _160
REMARK   65  A    between atoms: _160  and  _161
REMARK   66  A    between atoms: _160  and  _163
REMARK   67  A    between atoms: _163  and  _164
REMARK   68  A    between atoms: _167  and  _169
REMARK   69  A    between atoms: _169  and  _170
REMARK   70  A    between atoms: _169  and  _172
REMARK   71  A    between atoms: _172  and  _173
REMARK   72  A    between atoms: _179  and  _181
REMARK   73  A    between atoms: _181  and  _182
REMARK   74  A    between atoms: _181  and  _184
REMARK   75  A    between atoms: _184  and  _185
REMARK   76  A    between atoms: _188  and  _190
REMARK   77  A    between atoms: _190  and  _191
REMARK   78  A    between atoms: _190  and  _193
REMARK   79  A    between atoms: _193  and  _194
REMARK   80  A    between atoms: _196  and  _198
REMARK   81  A    between atoms: _198  and  _199
REMARK   82  A    between atoms: _198  and  _201
REMARK   83  A    between atoms: _201  and  _202
REMARK   84  A    between atoms: _205  and  _207
REMARK   85  A    between atoms: _207  and  _208
REMARK   86  A    between atoms: _207  and  _210
REMARK   87  A    between atoms: _210  and  _211
REMARK   88  A    between atoms: _213  and  _215
REMARK   89  A    between atoms: _215  and  _216
REMARK   90  A    between atoms: _215  and  _218
REMARK   91  A    between atoms: _218  and  _219
REMARK   92  A    between atoms: _224  and  _226
REMARK   93  A    between atoms: _226  and  _227
REMARK   94  A    between atoms: _226  and  _229
REMARK   95  A    between atoms: _229  and  _230
REMARK   96  A    between atoms: _233  and  _235
REMARK   97  A    between atoms: _235  and  _236
REMARK   98  A    between atoms: _235  and  _238
REMARK   99  A    between atoms: _238  and  _239
REMARK  100  A    between atoms: _244  and  _246
REMARK  101  A    between atoms: _246  and  _247
REMARK  102  A    between atoms: _249  and  _251
REMARK  103  A    between atoms: _251  and  _252
REMARK  104  A    between atoms: _251  and  _254
REMARK  105  A    between atoms: _254  and  _255
REMARK  106  A    between atoms: _258  and  _260
REMARK  107  A    between atoms: _260  and  _261
REMARK  108  A    between atoms: _260  and  _263
REMARK  109  A    between atoms: _263  and  _264
REMARK  110  A    between atoms: _267  and  _269
REMARK  111  A    between atoms: _269  and  _270
REMARK  112  A    between atoms: _269  and  _272
REMARK  113  A    between atoms: _272  and  _273
REMARK  114  A    between atoms: _276  and  _278
REMARK  115  A    between atoms: _278  and  _279
REMARK  116  A    between atoms: _278  and  _281
REMARK  117  A    between atoms: _281  and  _282
REMARK  118  A    between atoms: _284  and  _286
REMARK  119  A    between atoms: _286  and  _287
REMARK  120  A    between atoms: _286  and  _289
REMARK  121  A    between atoms: _291  and  _293
REMARK  122  A    between atoms: _293  and  _294
REMARK  123  A    between atoms: _293  and  _296
REMARK  124  A    between atoms: _296  and  _297
REMARK  125  A    between atoms: _299  and  _301
REMARK  126  A    between atoms: _301  and  _302
REMARK  127  A    between atoms: _301  and  _304
REMARK  128  A    between atoms: _304  and  _305
REMARK  129  A    between atoms: _307  and  _309
REMARK  130  A    between atoms: _309  and  _310
REMARK  131  A    between atoms: _309  and  _312
REMARK  132  A    between atoms: _312  and  _313
REMARK  133  A    between atoms: _318  and  _320
REMARK  134  A    between atoms: _320  and  _321
REMARK  135  A    between atoms: _320  and  _323
REMARK  136  A    between atoms: _323  and  _324
REMARK  137  A    between atoms: _329  and  _330
REMARK  138  A    between atoms: _332  and  _334
REMARK  139  A    between atoms: _334  and  _335
REMARK  140  A    between atoms: _334  and  _337
REMARK  141  A    between atoms: _337  and  _338
REMARK  142  A    between atoms: _341  and  _343
REMARK  143  A    between atoms: _343  and  _344
REMARK  144  A    between atoms: _343  and  _346
REMARK  145  A    between atoms: _346  and  _347
REMARK  146  A    between atoms: _350  and  _352
REMARK  147  A    between atoms: _352  and  _353
REMARK  148  A    between atoms: _352  and  _355
REMARK  149  A    between atoms: _355  and  _356
REMARK  150  A    between atoms: _356  and  _357
REMARK  151  A    between atoms: _357  and  _358
REMARK  152  A    between atoms: _367  and  _369
REMARK  153  A    between atoms: _369  and  _370
REMARK  154  A    between atoms: _369  and  _372
REMARK  155  A    between atoms: _372  and  _373
REMARK  156  A    between atoms: _377  and  _378
REMARK  157  A    between atoms: _383  and  _385
REMARK  158  A    between atoms: _385  and  _386
REMARK  159  A    between atoms: _385  and  _388
REMARK  160  A    between atoms: _388  and  _389
REMARK  161  A    between atoms: _389  and  _390
REMARK  162  A    between atoms: _390  and  _391
REMARK  163  A    between atoms: _400  and  _402
REMARK  164  A    between atoms: _402  and  _403
REMARK  165  A    between atoms: _402  and  _405
REMARK  166  A    between atoms: _405  and  _406
REMARK  167  A    between atoms: _406  and  _407
REMARK  168  A    between atoms: _410  and  _412
REMARK  169  A    between atoms: _412  and  _413
REMARK  170  A    between atoms: _412  and  _415
REMARK  171  A    between atoms: _415  and  _416
REMARK  172  A    between atoms: _419  and  _421
REMARK  173  A    between atoms: _421  and  _422
REMARK  174  A    between atoms: _421  and  _424
REMARK  175  A    between atoms: _424  and  _425
REMARK  176  A    between atoms: _430  and  _432
REMARK  177  A    between atoms: _432  and  _433
REMARK  178  A    between atoms: _432  and  _435
REMARK  179  A    between atoms: _435  and  _436
REMARK  180  A    between atoms: _438  and  _440
REMARK  181  A    between atoms: _440  and  _441
REMARK  182  A    between atoms: _440  and  _443
REMARK  183  A    between atoms: _443  and  _444
REMARK  184  A    between atoms: _454  and  _456
REMARK  185  A    between atoms: _456  and  _457
REMARK  186  A    between atoms: _456  and  _459
REMARK  187  A    between atoms: _459  and  _460
REMARK  188  A    between atoms: _463  and  _465
REMARK  189  A    between atoms: _465  and  _466
REMARK  190  A    between atoms: _468  and  _470
REMARK  191  A    between atoms: _470  and  _471
REMARK  192  A    between atoms: _470  and  _473
REMARK  193  A    between atoms: _473  and  _474
REMARK  194  A    between atoms: _479  and  _481
REMARK  195  A    between atoms: _481  and  _482
REMARK  196  A    between atoms: _481  and  _484
REMARK  197  A    between atoms: _484  and  _485
REMARK  198  A    between atoms: _488  and  _490
REMARK  199  A    between atoms: _490  and  _491
REMARK  200  A    between atoms: _490  and  _493
REMARK  201  A    between atoms: _493  and  _494
REMARK  202  A    between atoms: _497  and  _499
REMARK  203  A    between atoms: _499  and  _500
REMARK  204  A    between atoms: _499  and  _502
REMARK  205  A    between atoms: _502  and  _503
REMARK  206  A    between atoms: _503  and  _504
REMARK  207  A    between atoms: _506  and  _508
REMARK  208  A    between atoms: _508  and  _509
REMARK  209  A    between atoms: _508  and  _511
REMARK  210  A    between atoms: _511  and  _512
REMARK  211  A    between atoms: _517  and  _518
REMARK  212  A    between atoms: _520  and  _522
REMARK  213  A    between atoms: _522  and  _523
REMARK  214  A    between atoms: _527  and  _528
REMARK  215  A    between atoms: _533  and  _535
REMARK  216  A    between atoms: _535  and  _536
REMARK  217  A    between atoms: _535  and  _538
REMARK  218  A    between atoms: _538  and  _539
REMARK  219  A    between atoms: _542  and  _544
REMARK  220  A    between atoms: _544  and  _545
REMARK  221  A    between atoms: _544  and  _547
REMARK  222  A    between atoms: _547  and  _548
REMARK  223  A    between atoms: _558  and  _560
REMARK  224  A    between atoms: _560  and  _561
REMARK  225  A    between atoms: _560  and  _563
REMARK  226  A    between atoms: _563  and  _564
REMARK  227  A    between atoms: _567  and  _569
REMARK  228  A    between atoms: _569  and  _570
REMARK  229  A    between atoms: _569  and  _572
REMARK  230  A    between atoms: _574  and  _576
REMARK  231  A    between atoms: _576  and  _577
REMARK  232  A    between atoms: _576  and  _579
REMARK  233  A    between atoms: _579  and  _580
REMARK  234  A    between atoms: _580  and  _581
REMARK  235  A    between atoms: _586  and  _588
REMARK  236  A    between atoms: _588  and  _589
REMARK  237  A    between atoms: _588  and  _591
REMARK  238  A    between atoms: _591  and  _592
REMARK  239  A    between atoms: _595  and  _597
REMARK  240  A    between atoms: _597  and  _598
REMARK  241  A    between atoms: _597  and  _600
REMARK  242  A    between atoms: _600  and  _601
REMARK  243  A    between atoms: _606  and  _607
REMARK  244  A    between atoms: _609  and  _611
REMARK  245  A    between atoms: _611  and  _612
REMARK  246  A    between atoms: _614  and  _616
REMARK  247  A    between atoms: _616  and  _617
REMARK  248  A    between atoms: _620  and  _622
REMARK  249  A    between atoms: _622  and  _623
REMARK  250  A    between atoms: _622  and  _625
REMARK  251  A    between atoms: _627  and  _629
REMARK  252  A    between atoms: _629  and  _630
REMARK  253  A    between atoms: _629  and  _632
REMARK  254  A    between atoms: _632  and  _633
REMARK  255  A    between atoms: _638  and  _639
REMARK  256  A    between atoms: _641  and  _643
REMARK  257  A    between atoms: _643  and  _644
REMARK  258  A    between atoms: _643  and  _646
REMARK  259  A    between atoms: _646  and  _647
REMARK  260  A    between atoms: _650  and  _652
REMARK  261  A    between atoms: _652  and  _653
REMARK  262  A    between atoms: _652  and  _655
REMARK  263  A    between atoms: _655  and  _656
REMARK  264  A    between atoms: _661  and  _663
REMARK  265  A    between atoms: _663  and  _664
REMARK  266  A    between atoms: _663  and  _666
REMARK  267  A    between atoms: _666  and  _667
REMARK  268  A    between atoms: _673  and  _675
REMARK  269  A    between atoms: _675  and  _676
REMARK  270  A    between atoms: _679  and  _681
REMARK  271  A    between atoms: _681  and  _682
REMARK  272  A    between atoms: _684  and  _686
REMARK  273  A    between atoms: _686  and  _687
REMARK  274  A    between atoms: _686  and  _689
REMARK  275  A    between atoms: _689  and  _690
REMARK  276  A    between atoms: _695  and  _696
REMARK  277  A    between atoms: _698  and  _700
REMARK  278  A    between atoms: _700  and  _701
REMARK  279  A    between atoms: _700  and  _703
REMARK  280  A    between atoms: _703  and  _704
REMARK  281  A    between atoms: _706  and  _708
REMARK  282  A    between atoms: _708  and  _709
REMARK  283  A    between atoms: _711  and  _713
REMARK  284  A    between atoms: _713  and  _714
REMARK                            x       y       z     vdW  Elec       q    Type
REMARK                         _______ _______ _______ _____ _____    ______ ____
ROOT
ATOM      1  CA  GLU A   1      31.392  -5.949  40.504  0.00  0.00    +0.134 C 
ENDROOT
BRANCH   1   2
ATOM      2  N   GLU A   1      31.502  -6.676  41.764  0.00  0.00    -0.239 NA
ATOM      3  H   GLU A   1      32.423  -7.067  42.047  0.00  0.00    +0.142 HD
ENDBRANCH   1   2
BRANCH   1   4
ATOM      4  C   GLU A   1      32.043  -6.771  39.406  0.00  0.00    +0.224 C 
ATOM      5  O   GLU A   1      33.003  -7.496  39.651  0.00  0.00    -0.287 OA
ENDBRANCH   1   4
BRANCH   1   6
ATOM      6  CB  GLU A   1      32.069  -4.580  40.592  0.00  0.00    +0.037 C 
BRANCH   6   7
ATOM      7  CG  GLU A   1      31.393  -3.606  41.505  0.00  0.00    +0.116 C 
BRANCH   7   8
ATOM      8  CD  GLU A   1      32.170  -2.289  41.631  0.00  0.00    +0.365 C 
ATOM      9  OE2 GLU A   1      33.317  -2.307  42.153  0.00  0.00    -0.246 OA
ATOM     10  OE1 GLU A   1      31.631  -1.234  41.178  0.00  0.00    -0.246 OA
ENDBRANCH   7   8
ENDBRANCH   6   7
ENDBRANCH   1   6
TORSDOF 5
REMARK  Name = ../refined-set-2016/3gnw/3gnw_pocket.pdb
REMARK  284 active torsions:
REMARK  status: ('A' for Active; 'I' for Inactive)
REMARK    1  A    between atoms: _1  and  _3
REMARK    2  A    between atoms: _3  and  _4
REMARK    3  A    between atoms: _3  and  _6
REMARK    4  A    between atoms: _6  and  _7
REMARK    5  A    between atoms: _7  and  _8
REMARK    6  A    between atoms: _8  and  _9
REMARK    7  A    between atoms: _9  and  _10
REMARK    8  A    between atoms: _14  and  _16
REMARK    9  A    between atoms: _16  and  _17
REMARK   10  A    between atoms: _16  and  _19
REMARK   11  A    between atoms: _19  and  _20
REMARK   12  A    between atoms: _20  and  _21
REMARK   13  A    between atoms: _24  and  _26
REMARK   14  A    between atoms: _26  and  _27
REMARK   15  A    between atoms: _26  and  _29
REMARK   16  A    between atoms: _29  and  _30
REMARK   17  A    between atoms: _36  and  _38
REMARK   18  A    between atoms: _38  and  _39
REMARK   19  A    between atoms: _38  and  _41
REMARK   20  A    between atoms: _41  and  _42
REMARK   21  A    between atoms: _42  and  _43
REMARK   22  A    between atoms: _43  and  _44
REMARK   23  A    between atoms: _53  and  _55
REMARK   24  A    between atoms: _55  and  _56
REMARK   25  A    between atoms: _55  and  _58
REMARK   26  A    between atoms: _58  and  _59
REMARK   27  A    between atoms: _62  and  _64
REMARK   28  A    between atoms: _64  and  _65
REMARK   29  A    between atoms: _67  and  _69
REMARK   30  A    between atoms: _69  and  _70
REMARK   31  A    between atoms: _69  and  _72
REMARK   32  A    between atoms: _72  and  _73
REMARK   33  A    between atoms: _79  and  _81
REMARK   34  A    between atoms: _81  and  _82
REMARK   35  A    between atoms: _81  and  _84
REMARK   36  A    between atoms: _84  and  _85
REMARK   37  A    between atoms: _90  and  _91
REMARK   38  A    between atoms: _93  and  _95
REMARK   39  A    between atoms: _95  and  _96
REMARK   40  A    between atoms: _95  and  _98
REMARK   41  A    between atoms: _98  and  _99
REMARK   42  A    between atoms: _102  and  _103
REMARK   43  A    between atoms: _108  and  _110
REMARK   44  A    between atoms: _110  and  _111
REMARK   45  A    between atoms: _110  and  _113
REMARK   46  A    between atoms: _113  and  _114
REMARK   47  A    between atoms: _114  and  _115
REMARK   48  A    between atoms: _115  and  _116
REMARK   49  A    between atoms: _116  and  _117
REMARK   50  A    between atoms: _121  and  _123
REMARK   51  A    between atoms: _123  and  _124
REMARK   52  A    between atoms: _123  and  _126
REMARK   53  A    between atoms: _126  and  _127
REMARK   54  A    between atoms: _127  and  _128
REMARK   55  A    between atoms: _133  and  _135
REMARK   56  A    between atoms: _135  and  _136
REMARK   57  A    between atoms: _135  and  _138
REMARK   58  A    between atoms: _138  and  _139
REMARK   59  A    between atoms: _139  and  _140
REMARK   60  A    between atoms: _140  and  _141
REMARK   61  A    between atoms: _150  and  _152
REMARK   62  A    between atoms: _152  and  _153
REMARK   63  A    between atoms: _152  and  _155
REMARK   64  A    between atoms: _158  and  _160
REMARK   65  A    between atoms: _160  and  _161
REMARK   66  A    between atoms: _160  and  _163
REMARK   67  A    between atoms: _163  and  _164
REMARK   68  A    between atoms: _167  and  _169
REMARK   69  A    between atoms: _169  and  _170
REMARK   70  A    between atoms: _169  and  _172
REMARK   71  A    between atoms: _172  and  _173
REMARK   72  A    between atoms: _179  and  _181
REMARK   73  A    between atoms: _181  and  _182
REMARK   74  A    between atoms: _181  and  _184
REMARK   75  A    between atoms: _184  and  _185
REMARK   76  A    between atoms: _188  and  _190
REMARK   77  A    between atoms: _190  and  _191
REMARK   78  A    between atoms: _190  and  _193
REMARK   79  A    between atoms: _193  and  _194
REMARK   80  A    between atoms: _196  and  _198
REMARK   81  A    between atoms: _198  and  _199
REMARK   82  A    between atoms: _198  and  _201
REMARK   83  A    between atoms: _201  and  _202
REMARK   84  A    between atoms: _205  and  _207
REMARK   85  A    between atoms: _207  and  _208
REMARK   86  A    between atoms: _207  and  _210
REMARK   87  A    between atoms: _210  and  _211
REMARK   88  A    between atoms: _213  and  _215
REMARK   89  A    between atoms: _215  and  _216
REMARK   90  A    between atoms: _215  and  _218
REMARK   91  A    between atoms: _218  and  _219
REMARK   92  A    between atoms: _224  and  _226
REMARK   93  A    between atoms: _226  and  _227
REMARK   94  A    between atoms: _226  and  _229
REMARK   95  A    between atoms: _229  and  _230
REMARK   96  A    between atoms: _233  and  _235
REMARK   97  A    between atoms: _235  and  _236
REMARK   98  A    between atoms: _235  and  _238
REMARK   99  A    between atoms: _238  and  _239
REMARK  100  A    between atoms: _244  and  _246
REMARK  101  A    between atoms: _246  and  _247
REMARK  102  A    between atoms: _249  and  _251
REMARK  103  A    between atoms: _251  and  _252
REMARK  104  A    between atoms: _251  and  _254
REMARK  105  A    between atoms: _254  and  _255
REMARK  106  A    between atoms: _258  and  _260
REMARK  107  A    between atoms: _260  and  _261
REMARK  108  A    between atoms: _260  and  _263
REMARK  109  A    between atoms: _263  and  _264
REMARK  110  A    between atoms: _267  and  _269
REMARK  111  A    between atoms: _269  and  _270
REMARK  112  A    between atoms: _269  and  _272
REMARK  113  A    between atoms: _272  and  _273
REMARK  114  A    between atoms: _276  and  _278
REMARK  115  A    between atoms: _278  and  _279
REMARK  116  A    between atoms: _278  and  _281
REMARK  117  A    between atoms: _281  and  _282
REMARK  118  A    between atoms: _284  and  _286
REMARK  119  A    between atoms: _286  and  _287
REMARK  120  A    between atoms: _286  and  _289
REMARK  121  A    between atoms: _291  and  _293
REMARK  122  A    between atoms: _293  and  _294
REMARK  123  A    between atoms: _293  and  _296
REMARK  124  A    between atoms: _296  and  _297
REMARK  125  A    between atoms: _299  and  _301
REMARK  126  A    between atoms: _301  and  _302
REMARK  127  A    between atoms: _301  and  _304
REMARK  128  A    between atoms: _304  and  _305
REMARK  129  A    between atoms: _307  and  _309
REMARK  130  A    between atoms: _309  and  _310
REMARK  131  A    between atoms: _309  and  _312
REMARK  132  A    between atoms: _312  and  _313
REMARK  133  A    between atoms: _318  and  _320
REMARK  134  A    between atoms: _320  and  _321
REMARK  135  A    between atoms: _320  and  _323
REMARK  136  A    between atoms: _323  and  _324
REMARK  137  A    between atoms: _329  and  _330
REMARK  138  A    between atoms: _332  and  _334
REMARK  139  A    between atoms: _334  and  _335
REMARK  140  A    between atoms: _334  and  _337
REMARK  141  A    between atoms: _337  and  _338
REMARK  142  A    between atoms: _341  and  _343
REMARK  143  A    between atoms: _343  and  _344
REMARK  144  A    between atoms: _343  and  _346
REMARK  145  A    between atoms: _346  and  _347
REMARK  146  A    between atoms: _350  and  _352
REMARK  147  A    between atoms: _352  and  _353
REMARK  148  A    between atoms: _352  and  _355
REMARK  149  A    between atoms: _355  and  _356
REMARK  150  A    between atoms: _356  and  _357
REMARK  151  A    between atoms: _357  and  _358
REMARK  152  A    between atoms: _367  and  _369
REMARK  153  A    between atoms: _369  and  _370
REMARK  154  A    between atoms: _369  and  _372
REMARK  155  A    between atoms: _372  and  _373
REMARK  156  A    between atoms: _377  and  _378
REMARK  157  A    between atoms: _383  and  _385
REMARK  158  A    between atoms: _385  and  _386
REMARK  159  A    between atoms: _385  and  _388
REMARK  160  A    between atoms: _388  and  _389
REMARK  161  A    between atoms: _389  and  _390
REMARK  162  A    between atoms: _390  and  _391
REMARK  163  A    between atoms: _400  and  _402
REMARK  164  A    between atoms: _402  and  _403
REMARK  165  A    between atoms: _402  and  _405
REMARK  166  A    between atoms: _405  and  _406
REMARK  167  A    between atoms: _406  and  _407
REMARK  168  A    between atoms: _410  and  _412
REMARK  169  A    between atoms: _412  and  _413
REMARK  170  A    between atoms: _412  and  _415
REMARK  171  A    between atoms: _415  and  _416
REMARK  172  A    between atoms: _419  and  _421
REMARK  173  A    between atoms: _421  and  _422
REMARK  174  A    between atoms: _421  and  _424
REMARK  175  A    between atoms: _424  and  _425
REMARK  176  A    between atoms: _430  and  _432
REMARK  177  A    between atoms: _432  and  _433
REMARK  178  A    between atoms: _432  and  _435
REMARK  179  A    between atoms: _435  and  _436
REMARK  180  A    between atoms: _438  and  _440
REMARK  181  A    between atoms: _440  and  _441
REMARK  182  A    between atoms: _440  and  _443
REMARK  183  A    between atoms: _443  and  _444
REMARK  184  A    between atoms: _454  and  _456
REMARK  185  A    between atoms: _456  and  _457
REMARK  186  A    between atoms: _456  and  _459
REMARK  187  A    between atoms: _459  and  _460
REMARK  188  A    between atoms: _463  and  _465
REMARK  189  A    between atoms: _465  and  _466
REMARK  190  A    between atoms: _468  and  _470
REMARK  191  A    between atoms: _470  and  _471
REMARK  192  A    between atoms: _470  and  _473
REMARK  193  A    between atoms: _473  and  _474
REMARK  194  A    between atoms: _479  and  _481
REMARK  195  A    between atoms: _481  and  _482
REMARK  196  A    between atoms: _481  and  _484
REMARK  197  A    between atoms: _484  and  _485
REMARK  198  A    between atoms: _488  and  _490
REMARK  199  A    between atoms: _490  and  _491
REMARK  200  A    between atoms: _490  and  _493
REMARK  201  A    between atoms: _493  and  _494
REMARK  202  A    between atoms: _497  and  _499
REMARK  203  A    between atoms: _499  and  _500
REMARK  204  A    between atoms: _499  and  _502
REMARK  205  A    between atoms: _502  and  _503
REMARK  206  A    between atoms: _503  and  _504
REMARK  207  A    between atoms: _506  and  _508
REMARK  208  A    between atoms: _508  and  _509
REMARK  209  A    between atoms: _508  and  _511
REMARK  210  A    between atoms: _511  and  _512
REMARK  211  A    between atoms: _517  and  _518
REMARK  212  A    between atoms: _520  and  _522
REMARK  213  A    between atoms: _522  and  _523
REMARK  214  A    between atoms: _527  and  _528
REMARK  215  A    between atoms: _533  and  _535
REMARK  216  A    between atoms: _535  and  _536
REMARK  217  A    between atoms: _535  and  _538
REMARK  218  A    between atoms: _538  and  _539
REMARK  219  A    between atoms: _542  and  _544
REMARK  220  A    between atoms: _544  and  _545
REMARK  221  A    between atoms: _544  and  _547
REMARK  222  A    between atoms: _547  and  _548
REMARK  223  A    between atoms: _558  and  _560
REMARK  224  A    between atoms: _560  and  _561
REMARK  225  A    between atoms: _560  and  _563
REMARK  226  A    between atoms: _563  and  _564
REMARK  227  A    between atoms: _567  and  _569
REMARK  228  A    between atoms: _569  and  _570
REMARK  229  A    between atoms: _569  and  _572
REMARK  230  A    between atoms: _574  and  _576
REMARK  231  A    between atoms: _576  and  _577
REMARK  232  A    between atoms: _576  and  _579
REMARK  233  A    between atoms: _579  and  _580
REMARK  234  A    between atoms: _580  and  _581
REMARK  235  A    between atoms: _586  and  _588
REMARK  236  A    between atoms: _588  and  _589
REMARK  237  A    between atoms: _588  and  _591
REMARK  238  A    between atoms: _591  and  _592
REMARK  239  A    between atoms: _595  and  _597
REMARK  240  A    between atoms: _597  and  _598
REMARK  241  A    between atoms: _597  and  _600
REMARK  242  A    between atoms: _600  and  _601
REMARK  243  A    between atoms: _606  and  _607
REMARK  244  A    between atoms: _609  and  _611
REMARK  245  A    between atoms: _611  and  _612
REMARK  246  A    between atoms: _614  and  _616
REMARK  247  A    between atoms: _616  and  _617
REMARK  248  A    between atoms: _620  and  _622
REMARK  249  A    between atoms: _622  and  _623
REMARK  250  A    between atoms: _622  and  _625
REMARK  251  A    between atoms: _627  and  _629
REMARK  252  A    between atoms: _629  and  _630
REMARK  253  A    between atoms: _629  and  _632
REMARK  254  A    between atoms: _632  and  _633
REMARK  255  A    between atoms: _638  and  _639
REMARK  256  A    between atoms: _641  and  _643
REMARK  257  A    between atoms: _643  and  _644
REMARK  258  A    between atoms: _643  and  _646
REMARK  259  A    between atoms: _646  and  _647
REMARK  260  A    between atoms: _650  and  _652
REMARK  261  A    between atoms: _652  and  _653
REMARK  262  A    between atoms: _652  and  _655
REMARK  263  A    between atoms: _655  and  _656
REMARK  264  A    between atoms: _661  and  _663
REMARK  265  A    between atoms: _663  and  _664
REMARK  266  A    between atoms: _663  and  _666
REMARK  267  A    between atoms: _666  and  _667
REMARK  268  A    between atoms: _673  and  _675
REMARK  269  A    between atoms: _675  and  _676
REMARK  270  A    between atoms: _679  and  _681
REMARK  271  A    between atoms: _681  and  _682
REMARK  272  A    between atoms: _684  and  _686
REMARK  273  A    between atoms: _686  and  _687
REMARK  274  A    between atoms: _686  and  _689
REMARK  275  A    between atoms: _689  and  _690
REMARK  276  A    between atoms: _695  and  _696
REMARK  277  A    between atoms: _698  and  _700
REMARK  278  A    between atoms: _700  and  _701
REMARK  279  A    between atoms: _700  and  _703
REMARK  280  A    between atoms: _703  and  _704
REMARK  281  A    between atoms: _706  and  _708
REMARK  282  A    between atoms: _708  and  _709
REMARK  283  A    between atoms: _711  and  _713
REMARK  284  A    between atoms: _713  and  _714
REMARK                            x       y       z     vdW  Elec       q    Type
REMARK                         _______ _______ _______ _____ _____    ______ ____
ROOT
ATOM      1  CB  PHE A   1      36.258  -6.158  35.764  0.00  0.00    +0.051 C 
ENDROOT
BRANCH   1   2
ATOM      2  CG  PHE A   1      35.920  -5.144  36.785  0.00  0.00    -0.020 A 
ATOM      3  CD2 PHE A   1      35.725  -5.513  38.111  0.00  0.00    -0.004 A 
ATOM      4  CE2 PHE A   1      35.367  -4.551  39.077  0.00  0.00    -0.000 A 
ATOM      5  CZ  PHE A   1      35.205  -3.212  38.703  0.00  0.00    -0.000 A 
ATOM      6  CE1 PHE A   1      35.392  -2.838  37.363  0.00  0.00    -0.000 A 
ATOM      7  CD1 PHE A   1      35.757  -3.811  36.418  0.00  0.00    -0.004 A 
ENDBRANCH   1   2
BRANCH   1   8
ATOM      8  CA  PHE A   1      35.061  -6.593  34.920  0.00  0.00    +0.137 C 
BRANCH   8   9
ATOM      9  N   PHE A   1      34.019  -7.164  35.762  0.00  0.00    -0.239 NA
ATOM     10  H   PHE A   1      34.142  -8.146  36.081  0.00  0.00    +0.142 HD
ENDBRANCH   8   9
BRANCH   8  11
ATOM     11  C   PHE A   1      35.557  -7.617  33.912  0.00  0.00    +0.224 C 
ATOM     12  O   PHE A   1      35.336  -8.839  34.047  0.00  0.00    -0.287 OA
ENDBRANCH   8  11
ENDBRANCH   1   8
TORSDOF 4
REMARK  Name = ../refined-set-2016/3gnw/3gnw_pocket.pdb
REMARK  284 active torsions:
REMARK  status: ('A' for Active; 'I' for Inactive)
REMARK    1  A    between atoms: _1  and  _3
REMARK    2  A    between atoms: _3  and  _4
REMARK    3  A    between atoms: _3  and  _6
REMARK    4  A    between atoms: _6  and  _7
REMARK    5  A    between atoms: _7  and  _8
REMARK    6  A    between atoms: _8  and  _9
REMARK    7  A    between atoms: _9  and  _10
REMARK    8  A    between atoms: _14  and  _16
REMARK    9  A    between atoms: _16  and  _17
REMARK   10  A    between atoms: _16  and  _19
REMARK   11  A    between atoms: _19  and  _20
REMARK   12  A    between atoms: _20  and  _21
REMARK   13  A    between atoms: _24  and  _26
REMARK   14  A    between atoms: _26  and  _27
REMARK   15  A    between atoms: _26  and  _29
REMARK   16  A    between atoms: _29  and  _30
REMARK   17  A    between atoms: _36  and  _38
REMARK   18  A    between atoms: _38  and  _39
REMARK   19  A    between atoms: _38  and  _41
REMARK   20  A    between atoms: _41  and  _42
REMARK   21  A    between atoms: _42  and  _43
REMARK   22  A    between atoms: _43  and  _44
REMARK   23  A    between atoms: _53  and  _55
REMARK   24  A    between atoms: _55  and  _56
REMARK   25  A    between atoms: _55  and  _58
REMARK   26  A    between atoms: _58  and  _59
REMARK   27  A    between atoms: _62  and  _64
REMARK   28  A    between atoms: _64  and  _65
REMARK   29  A    between atoms: _67  and  _69
REMARK   30  A    between atoms: _69  and  _70
REMARK   31  A    between atoms: _69  and  _72
REMARK   32  A    between atoms: _72  and  _73
REMARK   33  A    between atoms: _79  and  _81
REMARK   34  A    between atoms: _81  and  _82
REMARK   35  A    between atoms: _81  and  _84
REMARK   36  A    between atoms: _84  and  _85
REMARK   37  A    between atoms: _90  and  _91
REMARK   38  A    between atoms: _93  and  _95
REMARK   39  A    between atoms: _95  and  _96
REMARK   40  A    between atoms: _95  and  _98
REMARK   41  A    between atoms: _98  and  _99
REMARK   42  A    between atoms: _102  and  _103
REMARK   43  A    between atoms: _108  and  _110
REMARK   44  A    between atoms: _110  and  _111
REMARK   45  A    between atoms: _110  and  _113
REMARK   46  A    between atoms: _113  and  _114
REMARK   47  A    between atoms: _114  and  _115
REMARK   48  A    between atoms: _115  and  _116
REMARK   49  A    between atoms: _116  and  _117
REMARK   50  A    between atoms: _121  and  _123
REMARK   51  A    between atoms: _123  and  _124
REMARK   52  A    between atoms: _123  and  _126
REMARK   53  A    between atoms: _126  and  _127
REMARK   54  A    between atoms: _127  and  _128
REMARK   55  A    between atoms: _133  and  _135
REMARK   56  A    between atoms: _135  and  _136
REMARK   57  A    between atoms: _135  and  _138
REMARK   58  A    between atoms: _138  and  _139
REMARK   59  A    between atoms: _139  and  _140
REMARK   60  A    between atoms: _140  and  _141
REMARK   61  A    between atoms: _150  and  _152
REMARK   62  A    between atoms: _152  and  _153
REMARK   63  A    between atoms: _152  and  _155
REMARK   64  A    between atoms: _158  and  _160
REMARK   65  A    between atoms: _160  and  _161
REMARK   66  A    between atoms: _160  and  _163
REMARK   67  A    between atoms: _163  and  _164
REMARK   68  A    between atoms: _167  and  _169
REMARK   69  A    between atoms: _169  and  _170
REMARK   70  A    between atoms: _169  and  _172
REMARK   71  A    between atoms: _172  and  _173
REMARK   72  A    between atoms: _179  and  _181
REMARK   73  A    between atoms: _181  and  _182
REMARK   74  A    between atoms: _181  and  _184
REMARK   75  A    between atoms: _184  and  _185
REMARK   76  A    between atoms: _188  and  _190
REMARK   77  A    between atoms: _190  and  _191
REMARK   78  A    between atoms: _190  and  _193
REMARK   79  A    between atoms: _193  and  _194
REMARK   80  A    between atoms: _196  and  _198
REMARK   81  A    between atoms: _198  and  _199
REMARK   82  A    between atoms: _198  and  _201
REMARK   83  A    between atoms: _201  and  _202
REMARK   84  A    between atoms: _205  and  _207
REMARK   85  A    between atoms: _207  and  _208
REMARK   86  A    between atoms: _207  and  _210
REMARK   87  A    between atoms: _210  and  _211
REMARK   88  A    between atoms: _213  and  _215
REMARK   89  A    between atoms: _215  and  _216
REMARK   90  A    between atoms: _215  and  _218
REMARK   91  A    between atoms: _218  and  _219
REMARK   92  A    between atoms: _224  and  _226
REMARK   93  A    between atoms: _226  and  _227
REMARK   94  A    between atoms: _226  and  _229
REMARK   95  A    between atoms: _229  and  _230
REMARK   96  A    between atoms: _233  and  _235
REMARK   97  A    between atoms: _235  and  _236
REMARK   98  A    between atoms: _235  and  _238
REMARK   99  A    between atoms: _238  and  _239
REMARK  100  A    between atoms: _244  and  _246
REMARK  101  A    between atoms: _246  and  _247
REMARK  102  A    between atoms: _249  and  _251
REMARK  103  A    between atoms: _251  and  _252
REMARK  104  A    between atoms: _251  and  _254
REMARK  105  A    between atoms: _254  and  _255
REMARK  106  A    between atoms: _258  and  _260
REMARK  107  A    between atoms: _260  and  _261
REMARK  108  A    between atoms: _260  and  _263
REMARK  109  A    between atoms: _263  and  _264
REMARK  110  A    between atoms: _267  and  _269
REMARK  111  A    between atoms: _269  and  _270
REMARK  112  A    between atoms: _269  and  _272
REMARK  113  A    between atoms: _272  and  _273
REMARK  114  A    between atoms: _276  and  _278
REMARK  115  A    between atoms: _278  and  _279
REMARK  116  A    between atoms: _278  and  _281
REMARK  117  A    between atoms: _281  and  _282
REMARK  118  A    between atoms: _284  and  _286
REMARK  119  A    between atoms: _286  and  _287
REMARK  120  A    between atoms: _286  and  _289
REMARK  121  A    between atoms: _291  and  _293
REMARK  122  A    between atoms: _293  and  _294
REMARK  123  A    between atoms: _293  and  _296
REMARK  124  A    between atoms: _296  and  _297
REMARK  125  A    between atoms: _299  and  _301
REMARK  126  A    between atoms: _301  and  _302
REMARK  127  A    between atoms: _301  and  _304
REMARK  128  A    between atoms: _304  and  _305
REMARK  129  A    between atoms: _307  and  _309
REMARK  130  A    between atoms: _309  and  _310
REMARK  131  A    between atoms: _309  and  _312
REMARK  132  A    between atoms: _312  and  _313
REMARK  133  A    between atoms: _318  and  _320
REMARK  134  A    between atoms: _320  and  _321
REMARK  135  A    between atoms: _320  and  _323
REMARK  136  A    between atoms: _323  and  _324
REMARK  137  A    between atoms: _329  and  _330
REMARK  138  A    between atoms: _332  and  _334
REMARK  139  A    between atoms: _334  and  _335
REMARK  140  A    between atoms: _334  and  _337
REMARK  141  A    between atoms: _337  and  _338
REMARK  142  A    between atoms: _341  and  _343
REMARK  143  A    between atoms: _343  and  _344
REMARK  144  A    between atoms: _343  and  _346
REMARK  145  A    between atoms: _346  and  _347
REMARK  146  A    between atoms: _350  and  _352
REMARK  147  A    between atoms: _352  and  _353
REMARK  148  A    between atoms: _352  and  _355
REMARK  149  A    between atoms: _355  and  _356
REMARK  150  A    between atoms: _356  and  _357
REMARK  151  A    between atoms: _357  and  _358
REMARK  152  A    between atoms: _367  and  _369
REMARK  153  A    between atoms: _369  and  _370
REMARK  154  A    between atoms: _369  and  _372
REMARK  155  A    between atoms: _372  and  _373
REMARK  156  A    between atoms: _377  and  _378
REMARK  157  A    between atoms: _383  and  _385
REMARK  158  A    between atoms: _385  and  _386
REMARK  159  A    between atoms: _385  and  _388
REMARK  160  A    between atoms: _388  and  _389
REMARK  161  A    between atoms: _389  and  _390
REMARK  162  A    between atoms: _390  and  _391
REMARK  163  A    between atoms: _400  and  _402
REMARK  164  A    between atoms: _402  and  _403
REMARK  165  A    between atoms: _402  and  _405
REMARK  166  A    between atoms: _405  and  _406
REMARK  167  A    between atoms: _406  and  _407
REMARK  168  A    between atoms: _410  and  _412
REMARK  169  A    between atoms: _412  and  _413
REMARK  170  A    between atoms: _412  and  _415
REMARK  171  A    between atoms: _415  and  _416
REMARK  172  A    between atoms: _419  and  _421
REMARK  173  A    between atoms: _421  and  _422
REMARK  174  A    between atoms: _421  and  _424
REMARK  175  A    between atoms: _424  and  _425
REMARK  176  A    between atoms: _430  and  _432
REMARK  177  A    between atoms: _432  and  _433
REMARK  178  A    between atoms: _432  and  _435
REMARK  179  A    between atoms: _435  and  _436
REMARK  180  A    between atoms: _438  and  _440
REMARK  181  A    between atoms: _440  and  _441
REMARK  182  A    between atoms: _440  and  _443
REMARK  183  A    between atoms: _443  and  _444
REMARK  184  A    between atoms: _454  and  _456
REMARK  185  A    between atoms: _456  and  _457
REMARK  186  A    between atoms: _456  and  _459
REMARK  187  A    between atoms: _459  and  _460
REMARK  188  A    between atoms: _463  and  _465
REMARK  189  A    between atoms: _465  and  _466
REMARK  190  A    between atoms: _468  and  _470
REMARK  191  A    between atoms: _470  and  _471
REMARK  192  A    between atoms: _470  and  _473
REMARK  193  A    between atoms: _473  and  _474
REMARK  194  A    between atoms: _479  and  _481
REMARK  195  A    between atoms: _481  and  _482
REMARK  196  A    between atoms: _481  and  _484
REMARK  197  A    between atoms: _484  and  _485
REMARK  198  A    between atoms: _488  and  _490
REMARK  199  A    between atoms: _490  and  _491
REMARK  200  A    between atoms: _490  and  _493
REMARK  201  A    between atoms: _493  and  _494
REMARK  202  A    between atoms: _497  and  _499
REMARK  203  A    between atoms: _499  and  _500
REMARK  204  A    between atoms: _499  and  _502
REMARK  205  A    between atoms: _502  and  _503
REMARK  206  A    between atoms: _503  and  _504
REMARK  207  A    between atoms: _506  and  _508
REMARK  208  A    between atoms: _508  and  _509
REMARK  209  A    between atoms: _508  and  _511
REMARK  210  A    between atoms: _511  and  _512
REMARK  211  A    between atoms: _517  and  _518
REMARK  212  A    between atoms: _520  and  _522
REMARK  213  A    between atoms: _522  and  _523
REMARK  214  A    between atoms: _527  and  _528
REMARK  215  A    between atoms: _533  and  _535
REMARK  216  A    between atoms: _535  and  _536
REMARK  217  A    between atoms: _535  and  _538
REMARK  218  A    between atoms: _538  and  _539
REMARK  219  A    between atoms: _542  and  _544
REMARK  220  A    between atoms: _544  and  _545
REMARK  221  A    between atoms: _544  and  _547
REMARK  222  A    between atoms: _547  and  _548
REMARK  223  A    between atoms: _558  and  _560
REMARK  224  A    between atoms: _560  and  _561
REMARK  225  A    between atoms: _560  and  _563
REMARK  226  A    between atoms: _563  and  _564
REMARK  227  A    between atoms: _567  and  _569
REMARK  228  A    between atoms: _569  and  _570
REMARK  229  A    between atoms: _569  and  _572
REMARK  230  A    between atoms: _574  and  _576
REMARK  231  A    between atoms: _576  and  _577
REMARK  232  A    between atoms: _576  and  _579
REMARK  233  A    between atoms: _579  and  _580
REMARK  234  A    between atoms: _580  and  _581
REMARK  235  A    between atoms: _586  and  _588
REMARK  236  A    between atoms: _588  and  _589
REMARK  237  A    between atoms: _588  and  _591
REMARK  238  A    between atoms: _591  and  _592
REMARK  239  A    between atoms: _595  and  _597
REMARK  240  A    between atoms: _597  and  _598
REMARK  241  A    between atoms: _597  and  _600
REMARK  242  A    between atoms: _600  and  _601
REMARK  243  A    between atoms: _606  and  _607
REMARK  244  A    between atoms: _609  and  _611
REMARK  245  A    between atoms: _611  and  _612
REMARK  246  A    between atoms: _614  and  _616
REMARK  247  A    between atoms: _616  and  _617
REMARK  248  A    between atoms: _620  and  _622
REMARK  249  A    between atoms: _622  and  _623
REMARK  250  A    between atoms: _622  and  _625
REMARK  251  A    between atoms: _627  and  _629
REMARK  252  A    between atoms: _629  and  _630
REMARK  253  A    between atoms: _629  and  _632
REMARK  254  A    between atoms: _632  and  _633
REMARK  255  A    between atoms: _638  and  _639
REMARK  256  A    between atoms: _641  and  _643
REMARK  257  A    between atoms: _643  and  _644
REMARK  258  A    between atoms: _643  and  _646
REMARK  259  A    between atoms: _646  and  _647
REMARK  260  A    between atoms: _650  and  _652
REMARK  261  A    between atoms: _652  and  _653
REMARK  262  A    between atoms: _652  and  _655
REMARK  263  A    between atoms: _655  and  _656
REMARK  264  A    between atoms: _661  and  _663
REMARK  265  A    between atoms: _663  and  _664
REMARK  266  A    between atoms: _663  and  _666
REMARK  267  A    between atoms: _666  and  _667
REMARK  268  A    between atoms: _673  and  _675
REMARK  269  A    between atoms: _675  and  _676
REMARK  270  A    between atoms: _679  and  _681
REMARK  271  A    between atoms: _681  and  _682
REMARK  272  A    between atoms: _684  and  _686
REMARK  273  A    between atoms: _686  and  _687
REMARK  274  A    between atoms: _686  and  _689
REMARK  275  A    between atoms: _689  and  _690
REMARK  276  A    between atoms: _695  and  _696
REMARK  277  A    between atoms: _698  and  _700
REMARK  278  A    between atoms: _700  and  _701
REMARK  279  A    between atoms: _700  and  _703
REMARK  280  A    between atoms: _703  and  _704
REMARK  281  A    between atoms: _706  and  _708
REMARK  282  A    between atoms: _708  and  _709
REMARK  283  A    between atoms: _711  and  _713
REMARK  284  A    between atoms: _713  and  _714
REMARK                            x       y       z     vdW  Elec       q    Type
REMARK                         _______ _______ _______ _____ _____    ______ ____
ROOT
ATOM      1  NE  ARG A   1      33.170   0.080  43.994  0.00  0.00    -0.265 N 
ATOM      2  CZ  ARG A   1      32.116   0.906  44.093  0.00  0.00    +0.342 C 
ATOM      3  NH2 ARG A   1      32.254   2.128  44.595  0.00  0.00    -0.292 N 
ATOM      4 HH21 ARG A   1      33.187   2.455  44.917  0.00  0.00    +0.255 HD
ATOM      5 HH22 ARG A   1      31.429   2.757  44.666  0.00  0.00    +0.255 HD
ATOM      6  NH1 ARG A   1      30.898   0.498  43.718  0.00  0.00    -0.292 N 
ATOM      7 HH11 ARG A   1      30.086   1.143  43.797  0.00  0.00    +0.255 HD
ATOM      8 HH12 ARG A   1      30.763  -0.464  43.347  0.00  0.00    +0.255 HD
ATOM      9  HE  ARG A   1      32.997  -0.880  43.633  0.00  0.00    +0.259 HD
ENDROOT
BRANCH   1  10
ATOM     10  CD  ARG A   1      34.554   0.432  44.359  0.00  0.00    +0.174 C 
BRANCH  10  11
ATOM     11  CG  ARG A   1      35.449  -0.783  44.599  0.00  0.00    +0.045 C 
BRANCH  11  12
ATOM     12  CB  ARG A   1      34.905  -1.561  45.783  0.00  0.00    +0.029 C 
BRANCH  12  13
ATOM     13  CA  ARG A   1      35.856  -2.525  46.481  0.00  0.00    +0.133 C 
BRANCH  13  14
ATOM     14  N   ARG A   1      36.030  -3.742  45.713  0.00  0.00    -0.239 NA
ATOM     15  H   ARG A   1      35.399  -3.925  44.907  0.00  0.00    +0.142 HD
ENDBRANCH  13  14
BRANCH  13  16
ATOM     16  C   ARG A   1      35.193  -2.880  47.780  0.00  0.00    +0.224 C 
ATOM     17  O   ARG A   1      34.377  -3.811  47.843  0.00  0.00    -0.287 OA
ENDBRANCH  13  16
ENDBRANCH  12  13
ENDBRANCH  11  12
ENDBRANCH  10  11
ENDBRANCH   1  10
TORSDOF 6
REMARK  Name = ../refined-set-2016/3gnw/3gnw_pocket.pdb
REMARK  284 active torsions:
REMARK  status: ('A' for Active; 'I' for Inactive)
REMARK    1  A    between atoms: _1  and  _3
REMARK    2  A    between atoms: _3  and  _4
REMARK    3  A    between atoms: _3  and  _6
REMARK    4  A    between atoms: _6  and  _7
REMARK    5  A    between atoms: _7  and  _8
REMARK    6  A    between atoms: _8  and  _9
REMARK    7  A    between atoms: _9  and  _10
REMARK    8  A    between atoms: _14  and  _16
REMARK    9  A    between atoms: _16  and  _17
REMARK   10  A    between atoms: _16  and  _19
REMARK   11  A    between atoms: _19  and  _20
REMARK   12  A    between atoms: _20  and  _21
REMARK   13  A    between atoms: _24  and  _26
REMARK   14  A    between atoms: _26  and  _27
REMARK   15  A    between atoms: _26  and  _29
REMARK   16  A    between atoms: _29  and  _30
REMARK   17  A    between atoms: _36  and  _38
REMARK   18  A    between atoms: _38  and  _39
REMARK   19  A    between atoms: _38  and  _41
REMARK   20  A    between atoms: _41  and  _42
REMARK   21  A    between atoms: _42  and  _43
REMARK   22  A    between atoms: _43  and  _44
REMARK   23  A    between atoms: _53  and  _55
REMARK   24  A    between atoms: _55  and  _56
REMARK   25  A    between atoms: _55  and  _58
REMARK   26  A    between atoms: _58  and  _59
REMARK   27  A    between atoms: _62  and  _64
REMARK   28  A    between atoms: _64  and  _65
REMARK   29  A    between atoms: _67  and  _69
REMARK   30  A    between atoms: _69  and  _70
REMARK   31  A    between atoms: _69  and  _72
REMARK   32  A    between atoms: _72  and  _73
REMARK   33  A    between atoms: _79  and  _81
REMARK   34  A    between atoms: _81  and  _82
REMARK   35  A    between atoms: _81  and  _84
REMARK   36  A    between atoms: _84  and  _85
REMARK   37  A    between atoms: _90  and  _91
REMARK   38  A    between atoms: _93  and  _95
REMARK   39  A    between atoms: _95  and  _96
REMARK   40  A    between atoms: _95  and  _98
REMARK   41  A    between atoms: _98  and  _99
REMARK   42  A    between atoms: _102  and  _103
REMARK   43  A    between atoms: _108  and  _110
REMARK   44  A    between atoms: _110  and  _111
REMARK   45  A    between atoms: _110  and  _113
REMARK   46  A    between atoms: _113  and  _114
REMARK   47  A    between atoms: _114  and  _115
REMARK   48  A    between atoms: _115  and  _116
REMARK   49  A    between atoms: _116  and  _117
REMARK   50  A    between atoms: _121  and  _123
REMARK   51  A    between atoms: _123  and  _124
REMARK   52  A    between atoms: _123  and  _126
REMARK   53  A    between atoms: _126  and  _127
REMARK   54  A    between atoms: _127  and  _128
REMARK   55  A    between atoms: _133  and  _135
REMARK   56  A    between atoms: _135  and  _136
REMARK   57  A    between atoms: _135  and  _138
REMARK   58  A    between atoms: _138  and  _139
REMARK   59  A    between atoms: _139  and  _140
REMARK   60  A    between atoms: _140  and  _141
REMARK   61  A    between atoms: _150  and  _152
REMARK   62  A    between atoms: _152  and  _153
REMARK   63  A    between atoms: _152  and  _155
REMARK   64  A    between atoms: _158  and  _160
REMARK   65  A    between atoms: _160  and  _161
REMARK   66  A    between atoms: _160  and  _163
REMARK   67  A    between atoms: _163  and  _164
REMARK   68  A    between atoms: _167  and  _169
REMARK   69  A    between atoms: _169  and  _170
REMARK   70  A    between atoms: _169  and  _172
REMARK   71  A    between atoms: _172  and  _173
REMARK   72  A    between atoms: _179  and  _181
REMARK   73  A    between atoms: _181  and  _182
REMARK   74  A    between atoms: _181  and  _184
REMARK   75  A    between atoms: _184  and  _185
REMARK   76  A    between atoms: _188  and  _190
REMARK   77  A    between atoms: _190  and  _191
REMARK   78  A    between atoms: _190  and  _193
REMARK   79  A    between atoms: _193  and  _194
REMARK   80  A    between atoms: _196  and  _198
REMARK   81  A    between atoms: _198  and  _199
REMARK   82  A    between atoms: _198  and  _201
REMARK   83  A    between atoms: _201  and  _202
REMARK   84  A    between atoms: _205  and  _207
REMARK   85  A    between atoms: _207  and  _208
REMARK   86  A    between atoms: _207  and  _210
REMARK   87  A    between atoms: _210  and  _211
REMARK   88  A    between atoms: _213  and  _215
REMARK   89  A    between atoms: _215  and  _216
REMARK   90  A    between atoms: _215  and  _218
REMARK   91  A    between atoms: _218  and  _219
REMARK   92  A    between atoms: _224  and  _226
REMARK   93  A    between atoms: _226  and  _227
REMARK   94  A    between atoms: _226  and  _229
REMARK   95  A    between atoms: _229  and  _230
REMARK   96  A    between atoms: _233  and  _235
REMARK   97  A    between atoms: _235  and  _236
REMARK   98  A    between atoms: _235  and  _238
REMARK   99  A    between atoms: _238  and  _239
REMARK  100  A    between atoms: _244  and  _246
REMARK  101  A    between atoms: _246  and  _247
REMARK  102  A    between atoms: _249  and  _251
REMARK  103  A    between atoms: _251  and  _252
REMARK  104  A    between atoms: _251  and  _254
REMARK  105  A    between atoms: _254  and  _255
REMARK  106  A    between atoms: _258  and  _260
REMARK  107  A    between atoms: _260  and  _261
REMARK  108  A    between atoms: _260  and  _263
REMARK  109  A    between atoms: _263  and  _264
REMARK  110  A    between atoms: _267  and  _269
REMARK  111  A    between atoms: _269  and  _270
REMARK  112  A    between atoms: _269  and  _272
REMARK  113  A    between atoms: _272  and  _273
REMARK  114  A    between atoms: _276  and  _278
REMARK  115  A    between atoms: _278  and  _279
REMARK  116  A    between atoms: _278  and  _281
REMARK  117  A    between atoms: _281  and  _282
REMARK  118  A    between atoms: _284  and  _286
REMARK  119  A    between atoms: _286  and  _287
REMARK  120  A    between atoms: _286  and  _289
REMARK  121  A    between atoms: _291  and  _293
REMARK  122  A    between atoms: _293  and  _294
REMARK  123  A    between atoms: _293  and  _296
REMARK  124  A    between atoms: _296  and  _297
REMARK  125  A    between atoms: _299  and  _301
REMARK  126  A    between atoms: _301  and  _302
REMARK  127  A    between atoms: _301  and  _304
REMARK  128  A    between atoms: _304  and  _305
REMARK  129  A    between atoms: _307  and  _309
REMARK  130  A    between atoms: _309  and  _310
REMARK  131  A    between atoms: _309  and  _312
REMARK  132  A    between atoms: _312  and  _313
REMARK  133  A    between atoms: _318  and  _320
REMARK  134  A    between atoms: _320  and  _321
REMARK  135  A    between atoms: _320  and  _323
REMARK  136  A    between atoms: _323  and  _324
REMARK  137  A    between atoms: _329  and  _330
REMARK  138  A    between atoms: _332  and  _334
REMARK  139  A    between atoms: _334  and  _335
REMARK  140  A    between atoms: _334  and  _337
REMARK  141  A    between atoms: _337  and  _338
REMARK  142  A    between atoms: _341  and  _343
REMARK  143  A    between atoms: _343  and  _344
REMARK  144  A    between atoms: _343  and  _346
REMARK  145  A    between atoms: _346  and  _347
REMARK  146  A    between atoms: _350  and  _352
REMARK  147  A    between atoms: _352  and  _353
REMARK  148  A    between atoms: _352  and  _355
REMARK  149  A    between atoms: _355  and  _356
REMARK  150  A    between atoms: _356  and  _357
REMARK  151  A    between atoms: _357  and  _358
REMARK  152  A    between atoms: _367  and  _369
REMARK  153  A    between atoms: _369  and  _370
REMARK  154  A    between atoms: _369  and  _372
REMARK  155  A    between atoms: _372  and  _373
REMARK  156  A    between atoms: _377  and  _378
REMARK  157  A    between atoms: _383  and  _385
REMARK  158  A    between atoms: _385  and  _386
REMARK  159  A    between atoms: _385  and  _388
REMARK  160  A    between atoms: _388  and  _389
REMARK  161  A    between atoms: _389  and  _390
REMARK  162  A    between atoms: _390  and  _391
REMARK  163  A    between atoms: _400  and  _402
REMARK  164  A    between atoms: _402  and  _403
REMARK  165  A    between atoms: _402  and  _405
REMARK  166  A    between atoms: _405  and  _406
REMARK  167  A    between atoms: _406  and  _407
REMARK  168  A    between atoms: _410  and  _412
REMARK  169  A    between atoms: _412  and  _413
REMARK  170  A    between atoms: _412  and  _415
REMARK  171  A    between atoms: _415  and  _416
REMARK  172  A    between atoms: _419  and  _421
REMARK  173  A    between atoms: _421  and  _422
REMARK  174  A    between atoms: _421  and  _424
REMARK  175  A    between atoms: _424  and  _425
REMARK  176  A    between atoms: _430  and  _432
REMARK  177  A    between atoms: _432  and  _433
REMARK  178  A    between atoms: _432  and  _435
REMARK  179  A    between atoms: _435  and  _436
REMARK  180  A    between atoms: _438  and  _440
REMARK  181  A    between atoms: _440  and  _441
REMARK  182  A    between atoms: _440  and  _443
REMARK  183  A    between atoms: _443  and  _444
REMARK  184  A    between atoms: _454  and  _456
REMARK  185  A    between atoms: _456  and  _457
REMARK  186  A    between atoms: _456  and  _459
REMARK  187  A    between atoms: _459  and  _460
REMARK  188  A    between atoms: _463  and  _465
REMARK  189  A    between atoms: _465  and  _466
REMARK  190  A    between atoms: _468  and  _470
REMARK  191  A    between atoms: _470  and  _471
REMARK  192  A    between atoms: _470  and  _473
REMARK  193  A    between atoms: _473  and  _474
REMARK  194  A    between atoms: _479  and  _481
REMARK  195  A    between atoms: _481  and  _482
REMARK  196  A    between atoms: _481  and  _484
REMARK  197  A    between atoms: _484  and  _485
REMARK  198  A    between atoms: _488  and  _490
REMARK  199  A    between atoms: _490  and  _491
REMARK  200  A    between atoms: _490  and  _493
REMARK  201  A    between atoms: _493  and  _494
REMARK  202  A    between atoms: _497  and  _499
REMARK  203  A    between atoms: _499  and  _500
REMARK  204  A    between atoms: _499  and  _502
REMARK  205  A    between atoms: _502  and  _503
REMARK  206  A    between atoms: _503  and  _504
REMARK  207  A    between atoms: _506  and  _508
REMARK  208  A    between atoms: _508  and  _509
REMARK  209  A    between atoms: _508  and  _511
REMARK  210  A    between atoms: _511  and  _512
REMARK  211  A    between atoms: _517  and  _518
REMARK  212  A    between atoms: _520  and  _522
REMARK  213  A    between atoms: _522  and  _523
REMARK  214  A    between atoms: _527  and  _528
REMARK  215  A    between atoms: _533  and  _535
REMARK  216  A    between atoms: _535  and  _536
REMARK  217  A    between atoms: _535  and  _538
REMARK  218  A    between atoms: _538  and  _539
REMARK  219  A    between atoms: _542  and  _544
REMARK  220  A    between atoms: _544  and  _545
REMARK  221  A    between atoms: _544  and  _547
REMARK  222  A    between atoms: _547  and  _548
REMARK  223  A    between atoms: _558  and  _560
REMARK  224  A    between atoms: _560  and  _561
REMARK  225  A    between atoms: _560  and  _563
REMARK  226  A    between atoms: _563  and  _564
REMARK  227  A    between atoms: _567  and  _569
REMARK  228  A    between atoms: _569  and  _570
REMARK  229  A    between atoms: _569  and  _572
REMARK  230  A    between atoms: _574  and  _576
REMARK  231  A    between atoms: _576  and  _577
REMARK  232  A    between atoms: _576  and  _579
REMARK  233  A    between atoms: _579  and  _580
REMARK  234  A    between atoms: _580  and  _581
REMARK  235  A    between atoms: _586  and  _588
REMARK  236  A    between atoms: _588  and  _589
REMARK  237  A    between atoms: _588  and  _591
REMARK  238  A    between atoms: _591  and  _592
REMARK  239  A    between atoms: _595  and  _597
REMARK  240  A    between atoms: _597  and  _598
REMARK  241  A    between atoms: _597  and  _600
REMARK  242  A    between atoms: _600  and  _601
REMARK  243  A    between atoms: _606  and  _607
REMARK  244  A    between atoms: _609  and  _611
REMARK  245  A    between atoms: _611  and  _612
REMARK  246  A    between atoms: _614  and  _616
REMARK  247  A    between atoms: _616  and  _617
REMARK  248  A    between atoms: _620  and  _622
REMARK  249  A    between atoms: _622  and  _623
REMARK  250  A    between atoms: _622  and  _625
REMARK  251  A    between atoms: _627  and  _629
REMARK  252  A    between atoms: _629  and  _630
REMARK  253  A    between atoms: _629  and  _632
REMARK  254  A    between atoms: _632  and  _633
REMARK  255  A    between atoms: _638  and  _639
REMARK  256  A    between atoms: _641  and  _643
REMARK  257  A    between atoms: _643  and  _644
REMARK  258  A    between atoms: _643  and  _646
REMARK  259  A    between atoms: _646  and  _647
REMARK  260  A    between atoms: _650  and  _652
REMARK  261  A    between atoms: _652  and  _653
REMARK  262  A    between atoms: _652  and  _655
REMARK  263  A    between atoms: _655  and  _656
REMARK  264  A    between atoms: _661  and  _663
REMARK  265  A    between atoms: _663  and  _664
REMARK  266  A    between atoms: _663  and  _666
REMARK  267  A    between atoms: _666  and  _667
REMARK  268  A    between atoms: _673  and  _675
REMARK  269  A    between atoms: _675  and  _676
REMARK  270  A    between atoms: _679  and  _681
REMARK  271  A    between atoms: _681  and  _682
REMARK  272  A    between atoms: _684  and  _686
REMARK  273  A    between atoms: _686  and  _687
REMARK  274  A    between atoms: _686  and  _689
REMARK  275  A    between atoms: _689  and  _690
REMARK  276  A    between atoms: _695  and  _696
REMARK  277  A    between atoms: _698  and  _700
REMARK  278  A    between atoms: _700  and  _701
REMARK  279  A    between atoms: _700  and  _703
REMARK  280  A    between atoms: _703  and  _704
REMARK  281  A    between atoms: _706  and  _708
REMARK  282  A    between atoms: _708  and  _709
REMARK  283  A    between atoms: _711  and  _713
REMARK  284  A    between atoms: _713  and  _714
REMARK                            x       y       z     vdW  Elec       q    Type
REMARK                         _______ _______ _______ _____ _____    ______ ____
ROOT
ATOM      1  CA  ILE A   1      31.521  -0.773  51.097  0.00  0.00    +0.133 C 
ENDROOT
BRANCH   1   2
ATOM      2  N   ILE A   1      32.600  -1.704  50.774  0.00  0.00    -0.239 NA
ATOM      3  H   ILE A   1      32.462  -2.727  50.899  0.00  0.00    +0.142 HD
ENDBRANCH   1   2
BRANCH   1   4
ATOM      4  C   ILE A   1      31.283  -0.738  52.624  0.00  0.00    +0.224 C 
ATOM      5  O   ILE A   1      31.342  -1.749  53.313  0.00  0.00    -0.287 OA
ENDBRANCH   1   4
BRANCH   1   6
ATOM      6  CB  ILE A   1      30.246  -0.991  50.185  0.00  0.00    +0.023 C 
ATOM      7  CG2 ILE A   1      29.703  -2.409  50.309  0.00  0.00    +0.002 C 
BRANCH   6   8
ATOM      8  CG1 ILE A   1      29.131   0.047  50.473  0.00  0.00    +0.002 C 
ATOM      9  CD1 ILE A   1      29.100   1.350  49.557  0.00  0.00    +0.000 C 
ENDBRANCH   6   8
ENDBRANCH   1   6
TORSDOF 4
REMARK  Name = ../refined-set-2016/3gnw/3gnw_pocket.pdb
REMARK  284 active torsions:
REMARK  status: ('A' for Active; 'I' for Inactive)
REMARK    1  A    between atoms: _1  and  _3
REMARK    2  A    between atoms: _3  and  _4
REMARK    3  A    between atoms: _3  and  _6
REMARK    4  A    between atoms: _6  and  _7
REMARK    5  A    between atoms: _7  and  _8
REMARK    6  A    between atoms: _8  and  _9
REMARK    7  A    between atoms: _9  and  _10
REMARK    8  A    between atoms: _14  and  _16
REMARK    9  A    between atoms: _16  and  _17
REMARK   10  A    between atoms: _16  and  _19
REMARK   11  A    between atoms: _19  and  _20
REMARK   12  A    between atoms: _20  and  _21
REMARK   13  A    between atoms: _24  and  _26
REMARK   14  A    between atoms: _26  and  _27
REMARK   15  A    between atoms: _26  and  _29
REMARK   16  A    between atoms: _29  and  _30
REMARK   17  A    between atoms: _36  and  _38
REMARK   18  A    between atoms: _38  and  _39
REMARK   19  A    between atoms: _38  and  _41
REMARK   20  A    between atoms: _41  and  _42
REMARK   21  A    between atoms: _42  and  _43
REMARK   22  A    between atoms: _43  and  _44
REMARK   23  A    between atoms: _53  and  _55
REMARK   24  A    between atoms: _55  and  _56
REMARK   25  A    between atoms: _55  and  _58
REMARK   26  A    between atoms: _58  and  _59
REMARK   27  A    between atoms: _62  and  _64
REMARK   28  A    between atoms: _64  and  _65
REMARK   29  A    between atoms: _67  and  _69
REMARK   30  A    between atoms: _69  and  _70
REMARK   31  A    between atoms: _69  and  _72
REMARK   32  A    between atoms: _72  and  _73
REMARK   33  A    between atoms: _79  and  _81
REMARK   34  A    between atoms: _81  and  _82
REMARK   35  A    between atoms: _81  and  _84
REMARK   36  A    between atoms: _84  and  _85
REMARK   37  A    between atoms: _90  and  _91
REMARK   38  A    between atoms: _93  and  _95
REMARK   39  A    between atoms: _95  and  _96
REMARK   40  A    between atoms: _95  and  _98
REMARK   41  A    between atoms: _98  and  _99
REMARK   42  A    between atoms: _102  and  _103
REMARK   43  A    between atoms: _108  and  _110
REMARK   44  A    between atoms: _110  and  _111
REMARK   45  A    between atoms: _110  and  _113
REMARK   46  A    between atoms: _113  and  _114
REMARK   47  A    between atoms: _114  and  _115
REMARK   48  A    between atoms: _115  and  _116
REMARK   49  A    between atoms: _116  and  _117
REMARK   50  A    between atoms: _121  and  _123
REMARK   51  A    between atoms: _123  and  _124
REMARK   52  A    between atoms: _123  and  _126
REMARK   53  A    between atoms: _126  and  _127
REMARK   54  A    between atoms: _127  and  _128
REMARK   55  A    between atoms: _133  and  _135
REMARK   56  A    between atoms: _135  and  _136
REMARK   57  A    between atoms: _135  and  _138
REMARK   58  A    between atoms: _138  and  _139
REMARK   59  A    between atoms: _139  and  _140
REMARK   60  A    between atoms: _140  and  _141
REMARK   61  A    between atoms: _150  and  _152
REMARK   62  A    between atoms: _152  and  _153
REMARK   63  A    between atoms: _152  and  _155
REMARK   64  A    between atoms: _158  and  _160
REMARK   65  A    between atoms: _160  and  _161
REMARK   66  A    between atoms: _160  and  _163
REMARK   67  A    between atoms: _163  and  _164
REMARK   68  A    between atoms: _167  and  _169
REMARK   69  A    between atoms: _169  and  _170
REMARK   70  A    between atoms: _169  and  _172
REMARK   71  A    between atoms: _172  and  _173
REMARK   72  A    between atoms: _179  and  _181
REMARK   73  A    between atoms: _181  and  _182
REMARK   74  A    between atoms: _181  and  _184
REMARK   75  A    between atoms: _184  and  _185
REMARK   76  A    between atoms: _188  and  _190
REMARK   77  A    between atoms: _190  and  _191
REMARK   78  A    between atoms: _190  and  _193
REMARK   79  A    between atoms: _193  and  _194
REMARK   80  A    between atoms: _196  and  _198
REMARK   81  A    between atoms: _198  and  _199
REMARK   82  A    between atoms: _198  and  _201
REMARK   83  A    between atoms: _201  and  _202
REMARK   84  A    between atoms: _205  and  _207
REMARK   85  A    between atoms: _207  and  _208
REMARK   86  A    between atoms: _207  and  _210
REMARK   87  A    between atoms: _210  and  _211
REMARK   88  A    between atoms: _213  and  _215
REMARK   89  A    between atoms: _215  and  _216
REMARK   90  A    between atoms: _215  and  _218
REMARK   91  A    between atoms: _218  and  _219
REMARK   92  A    between atoms: _224  and  _226
REMARK   93  A    between atoms: _226  and  _227
REMARK   94  A    between atoms: _226  and  _229
REMARK   95  A    between atoms: _229  and  _230
REMARK   96  A    between atoms: _233  and  _235
REMARK   97  A    between atoms: _235  and  _236
REMARK   98  A    between atoms: _235  and  _238
REMARK   99  A    between atoms: _238  and  _239
REMARK  100  A    between atoms: _244  and  _246
REMARK  101  A    between atoms: _246  and  _247
REMARK  102  A    between atoms: _249  and  _251
REMARK  103  A    between atoms: _251  and  _252
REMARK  104  A    between atoms: _251  and  _254
REMARK  105  A    between atoms: _254  and  _255
REMARK  106  A    between atoms: _258  and  _260
REMARK  107  A    between atoms: _260  and  _261
REMARK  108  A    between atoms: _260  and  _263
REMARK  109  A    between atoms: _263  and  _264
REMARK  110  A    between atoms: _267  and  _269
REMARK  111  A    between atoms: _269  and  _270
REMARK  112  A    between atoms: _269  and  _272
REMARK  113  A    between atoms: _272  and  _273
REMARK  114  A    between atoms: _276  and  _278
REMARK  115  A    between atoms: _278  and  _279
REMARK  116  A    between atoms: _278  and  _281
REMARK  117  A    between atoms: _281  and  _282
REMARK  118  A    between atoms: _284  and  _286
REMARK  119  A    between atoms: _286  and  _287
REMARK  120  A    between atoms: _286  and  _289
REMARK  121  A    between atoms: _291  and  _293
REMARK  122  A    between atoms: _293  and  _294
REMARK  123  A    between atoms: _293  and  _296
REMARK  124  A    between atoms: _296  and  _297
REMARK  125  A    between atoms: _299  and  _301
REMARK  126  A    between atoms: _301  and  _302
REMARK  127  A    between atoms: _301  and  _304
REMARK  128  A    between atoms: _304  and  _305
REMARK  129  A    between atoms: _307  and  _309
REMARK  130  A    between atoms: _309  and  _310
REMARK  131  A    between atoms: _309  and  _312
REMARK  132  A    between atoms: _312  and  _313
REMARK  133  A    between atoms: _318  and  _320
REMARK  134  A    between atoms: _320  and  _321
REMARK  135  A    between atoms: _320  and  _323
REMARK  136  A    between atoms: _323  and  _324
REMARK  137  A    between atoms: _329  and  _330
REMARK  138  A    between atoms: _332  and  _334
REMARK  139  A    between atoms: _334  and  _335
REMARK  140  A    between atoms: _334  and  _337
REMARK  141  A    between atoms: _337  and  _338
REMARK  142  A    between atoms: _341  and  _343
REMARK  143  A    between atoms: _343  and  _344
REMARK  144  A    between atoms: _343  and  _346
REMARK  145  A    between atoms: _346  and  _347
REMARK  146  A    between atoms: _350  and  _352
REMARK  147  A    between atoms: _352  and  _353
REMARK  148  A    between atoms: _352  and  _355
REMARK  149  A    between atoms: _355  and  _356
REMARK  150  A    between atoms: _356  and  _357
REMARK  151  A    between atoms: _357  and  _358
REMARK  152  A    between atoms: _367  and  _369
REMARK  153  A    between atoms: _369  and  _370
REMARK  154  A    between atoms: _369  and  _372
REMARK  155  A    between atoms: _372  and  _373
REMARK  156  A    between atoms: _377  and  _378
REMARK  157  A    between atoms: _383  and  _385
REMARK  158  A    between atoms: _385  and  _386
REMARK  159  A    between atoms: _385  and  _388
REMARK  160  A    between atoms: _388  and  _389
REMARK  161  A    between atoms: _389  and  _390
REMARK  162  A    between atoms: _390  and  _391
REMARK  163  A    between atoms: _400  and  _402
REMARK  164  A    between atoms: _402  and  _403
REMARK  165  A    between atoms: _402  and  _405
REMARK  166  A    between atoms: _405  and  _406
REMARK  167  A    between atoms: _406  and  _407
REMARK  168  A    between atoms: _410  and  _412
REMARK  169  A    between atoms: _412  and  _413
REMARK  170  A    between atoms: _412  and  _415
REMARK  171  A    between atoms: _415  and  _416
REMARK  172  A    between atoms: _419  and  _421
REMARK  173  A    between atoms: _421  and  _422
REMARK  174  A    between atoms: _421  and  _424
REMARK  175  A    between atoms: _424  and  _425
REMARK  176  A    between atoms: _430  and  _432
REMARK  177  A    between atoms: _432  and  _433
REMARK  178  A    between atoms: _432  and  _435
REMARK  179  A    between atoms: _435  and  _436
REMARK  180  A    between atoms: _438  and  _440
REMARK  181  A    between atoms: _440  and  _441
REMARK  182  A    between atoms: _440  and  _443
REMARK  183  A    between atoms: _443  and  _444
REMARK  184  A    between atoms: _454  and  _456
REMARK  185  A    between atoms: _456  and  _457
REMARK  186  A    between atoms: _456  and  _459
REMARK  187  A    between atoms: _459  and  _460
REMARK  188  A    between atoms: _463  and  _465
REMARK  189  A    between atoms: _465  and  _466
REMARK  190  A    between atoms: _468  and  _470
REMARK  191  A    between atoms: _470  and  _471
REMARK  192  A    between atoms: _470  and  _473
REMARK  193  A    between atoms: _473  and  _474
REMARK  194  A    between atoms: _479  and  _481
REMARK  195  A    between atoms: _481  and  _482
REMARK  196  A    between atoms: _481  and  _484
REMARK  197  A    between atoms: _484  and  _485
REMARK  198  A    between atoms: _488  and  _490
REMARK  199  A    between atoms: _490  and  _491
REMARK  200  A    between atoms: _490  and  _493
REMARK  201  A    between atoms: _493  and  _494
REMARK  202  A    between atoms: _497  and  _499
REMARK  203  A    between atoms: _499  and  _500
REMARK  204  A    between atoms: _499  and  _502
REMARK  205  A    between atoms: _502  and  _503
REMARK  206  A    between atoms: _503  and  _504
REMARK  207  A    between atoms: _506  and  _508
REMARK  208  A    between atoms: _508  and  _509
REMARK  209  A    between atoms: _508  and  _511
REMARK  210  A    between atoms: _511  and  _512
REMARK  211  A    between atoms: _517  and  _518
REMARK  212  A    between atoms: _520  and  _522
REMARK  213  A    between atoms: _522  and  _523
REMARK  214  A    between atoms: _527  and  _528
REMARK  215  A    between atoms: _533  and  _535
REMARK  216  A    between atoms: _535  and  _536
REMARK  217  A    between atoms: _535  and  _538
REMARK  218  A    between atoms: _538  and  _539
REMARK  219  A    between atoms: _542  and  _544
REMARK  220  A    between atoms: _544  and  _545
REMARK  221  A    between atoms: _544  and  _547
REMARK  222  A    between atoms: _547  and  _548
REMARK  223  A    between atoms: _558  and  _560
REMARK  224  A    between atoms: _560  and  _561
REMARK  225  A    between atoms: _560  and  _563
REMARK  226  A    between atoms: _563  and  _564
REMARK  227  A    between atoms: _567  and  _569
REMARK  228  A    between atoms: _569  and  _570
REMARK  229  A    between atoms: _569  and  _572
REMARK  230  A    between atoms: _574  and  _576
REMARK  231  A    between atoms: _576  and  _577
REMARK  232  A    between atoms: _576  and  _579
REMARK  233  A    between atoms: _579  and  _580
REMARK  234  A    between atoms: _580  and  _581
REMARK  235  A    between atoms: _586  and  _588
REMARK  236  A    between atoms: _588  and  _589
REMARK  237  A    between atoms: _588  and  _591
REMARK  238  A    between atoms: _591  and  _592
REMARK  239  A    between atoms: _595  and  _597
REMARK  240  A    between atoms: _597  and  _598
REMARK  241  A    between atoms: _597  and  _600
REMARK  242  A    between atoms: _600  and  _601
REMARK  243  A    between atoms: _606  and  _607
REMARK  244  A    between atoms: _609  and  _611
REMARK  245  A    between atoms: _611  and  _612
REMARK  246  A    between atoms: _614  and  _616
REMARK  247  A    between atoms: _616  and  _617
REMARK  248  A    between atoms: _620  and  _622
REMARK  249  A    between atoms: _622  and  _623
REMARK  250  A    between atoms: _622  and  _625
REMARK  251  A    between atoms: _627  and  _629
REMARK  252  A    between atoms: _629  and  _630
REMARK  253  A    between atoms: _629  and  _632
REMARK  254  A    between atoms: _632  and  _633
REMARK  255  A    between atoms: _638  and  _639
REMARK  256  A    between atoms: _641  and  _643
REMARK  257  A    between atoms: _643  and  _644
REMARK  258  A    between atoms: _643  and  _646
REMARK  259  A    between atoms: _646  and  _647
REMARK  260  A    between atoms: _650  and  _652
REMARK  261  A    between atoms: _652  and  _653
REMARK  262  A    between atoms: _652  and  _655
REMARK  263  A    between atoms: _655  and  _656
REMARK  264  A    between atoms: _661  and  _663
REMARK  265  A    between atoms: _663  and  _664
REMARK  266  A    between atoms: _663  and  _666
REMARK  267  A    between atoms: _666  and  _667
REMARK  268  A    between atoms: _673  and  _675
REMARK  269  A    between atoms: _675  and  _676
REMARK  270  A    between atoms: _679  and  _681
REMARK  271  A    between atoms: _681  and  _682
REMARK  272  A    between atoms: _684  and  _686
REMARK  273  A    between atoms: _686  and  _687
REMARK  274  A    between atoms: _686  and  _689
REMARK  275  A    between atoms: _689  and  _690
REMARK  276  A    between atoms: _695  and  _696
REMARK  277  A    between atoms: _698  and  _700
REMARK  278  A    between atoms: _700  and  _701
REMARK  279  A    between atoms: _700  and  _703
REMARK  280  A    between atoms: _703  and  _704
REMARK  281  A    between atoms: _706  and  _708
REMARK  282  A    between atoms: _708  and  _709
REMARK  283  A    between atoms: _711  and  _713
REMARK  284  A    between atoms: _713  and  _714
REMARK                            x       y       z     vdW  Elec       q    Type
REMARK                         _______ _______ _______ _____ _____    ______ ____
ROOT
ATOM      1  CA  PHE A   2      25.197  15.877  38.647  0.00  0.00    +0.141 C 
ENDROOT
BRANCH   1   3
ATOM      2  C   GLY A   1      26.965  17.016  37.388  0.00  0.00    +0.240 C 
ATOM      3  N   PHE A   2      26.422  16.697  38.559  0.00  0.00    -0.298 N 
ATOM      4  H   PHE A   2      26.871  17.033  39.435  0.00  0.00    +0.150 HD
ATOM      5  O   GLY A   1      26.439  16.752  36.282  0.00  0.00    -0.274 OA
BRANCH   2   6
ATOM      6  CA  GLY A   1      28.280  17.746  37.451  0.00  0.00    +0.169 C 
BRANCH   6   7
ATOM      7  N   GLY A   1      28.484  18.577  38.620  0.00  0.00    -0.236 NA
ATOM      8  H   GLY A   1      29.201  18.296  39.319  0.00  0.00    +0.142 HD
ENDBRANCH   6   7
ENDBRANCH   2   6
ENDBRANCH   1   3
BRANCH   1   9
ATOM      9  C   PHE A   2      23.905  16.591  38.315  0.00  0.00    +0.227 C 
ATOM     10  O   PHE A   2      22.841  15.971  38.264  0.00  0.00    -0.286 OA
ENDBRANCH   1   9
BRANCH   1  11
ATOM     11  CB  PHE A   2      25.068  15.263  40.018  0.00  0.00    +0.054 C 
BRANCH  11  12
ATOM     12  CG  PHE A   2      26.177  14.328  40.357  0.00  0.00    -0.020 A 
ATOM     13  CD2 PHE A   2      27.085  14.635  41.376  0.00  0.00    -0.004 A 
ATOM     14  CE2 PHE A   2      28.079  13.735  41.705  0.00  0.00    -0.000 A 
ATOM     15  CZ  PHE A   2      28.192  12.509  41.017  0.00  0.00    -0.000 A 
ATOM     16  CE1 PHE A   2      27.302  12.192  40.018  0.00  0.00    -0.000 A 
ATOM     17  CD1 PHE A   2      26.292  13.109  39.688  0.00  0.00    -0.004 A 
ENDBRANCH  11  12
ENDBRANCH   1  11
TORSDOF 6
REMARK  Name = ../refined-set-2016/3gnw/3gnw_pocket.pdb
REMARK  284 active torsions:
REMARK  status: ('A' for Active; 'I' for Inactive)
REMARK    1  A    between atoms: _1  and  _3
REMARK    2  A    between atoms: _3  and  _4
REMARK    3  A    between atoms: _3  and  _6
REMARK    4  A    between atoms: _6  and  _7
REMARK    5  A    between atoms: _7  and  _8
REMARK    6  A    between atoms: _8  and  _9
REMARK    7  A    between atoms: _9  and  _10
REMARK    8  A    between atoms: _14  and  _16
REMARK    9  A    between atoms: _16  and  _17
REMARK   10  A    between atoms: _16  and  _19
REMARK   11  A    between atoms: _19  and  _20
REMARK   12  A    between atoms: _20  and  _21
REMARK   13  A    between atoms: _24  and  _26
REMARK   14  A    between atoms: _26  and  _27
REMARK   15  A    between atoms: _26  and  _29
REMARK   16  A    between atoms: _29  and  _30
REMARK   17  A    between atoms: _36  and  _38
REMARK   18  A    between atoms: _38  and  _39
REMARK   19  A    between atoms: _38  and  _41
REMARK   20  A    between atoms: _41  and  _42
REMARK   21  A    between atoms: _42  and  _43
REMARK   22  A    between atoms: _43  and  _44
REMARK   23  A    between atoms: _53  and  _55
REMARK   24  A    between atoms: _55  and  _56
REMARK   25  A    between atoms: _55  and  _58
REMARK   26  A    between atoms: _58  and  _59
REMARK   27  A    between atoms: _62  and  _64
REMARK   28  A    between atoms: _64  and  _65
REMARK   29  A    between atoms: _67  and  _69
REMARK   30  A    between atoms: _69  and  _70
REMARK   31  A    between atoms: _69  and  _72
REMARK   32  A    between atoms: _72  and  _73
REMARK   33  A    between atoms: _79  and  _81
REMARK   34  A    between atoms: _81  and  _82
REMARK   35  A    between atoms: _81  and  _84
REMARK   36  A    between atoms: _84  and  _85
REMARK   37  A    between atoms: _90  and  _91
REMARK   38  A    between atoms: _93  and  _95
REMARK   39  A    between atoms: _95  and  _96
REMARK   40  A    between atoms: _95  and  _98
REMARK   41  A    between atoms: _98  and  _99
REMARK   42  A    between atoms: _102  and  _103
REMARK   43  A    between atoms: _108  and  _110
REMARK   44  A    between atoms: _110  and  _111
REMARK   45  A    between atoms: _110  and  _113
REMARK   46  A    between atoms: _113  and  _114
REMARK   47  A    between atoms: _114  and  _115
REMARK   48  A    between atoms: _115  and  _116
REMARK   49  A    between atoms: _116  and  _117
REMARK   50  A    between atoms: _121  and  _123
REMARK   51  A    between atoms: _123  and  _124
REMARK   52  A    between atoms: _123  and  _126
REMARK   53  A    between atoms: _126  and  _127
REMARK   54  A    between atoms: _127  and  _128
REMARK   55  A    between atoms: _133  and  _135
REMARK   56  A    between atoms: _135  and  _136
REMARK   57  A    between atoms: _135  and  _138
REMARK   58  A    between atoms: _138  and  _139
REMARK   59  A    between atoms: _139  and  _140
REMARK   60  A    between atoms: _140  and  _141
REMARK   61  A    between atoms: _150  and  _152
REMARK   62  A    between atoms: _152  and  _153
REMARK   63  A    between atoms: _152  and  _155
REMARK   64  A    between atoms: _158  and  _160
REMARK   65  A    between atoms: _160  and  _161
REMARK   66  A    between atoms: _160  and  _163
REMARK   67  A    between atoms: _163  and  _164
REMARK   68  A    between atoms: _167  and  _169
REMARK   69  A    between atoms: _169  and  _170
REMARK   70  A    between atoms: _169  and  _172
REMARK   71  A    between atoms: _172  and  _173
REMARK   72  A    between atoms: _179  and  _181
REMARK   73  A    between atoms: _181  and  _182
REMARK   74  A    between atoms: _181  and  _184
REMARK   75  A    between atoms: _184  and  _185
REMARK   76  A    between atoms: _188  and  _190
REMARK   77  A    between atoms: _190  and  _191
REMARK   78  A    between atoms: _190  and  _193
REMARK   79  A    between atoms: _193  and  _194
REMARK   80  A    between atoms: _196  and  _198
REMARK   81  A    between atoms: _198  and  _199
REMARK   82  A    between atoms: _198  and  _201
REMARK   83  A    between atoms: _201  and  _202
REMARK   84  A    between atoms: _205  and  _207
REMARK   85  A    between atoms: _207  and  _208
REMARK   86  A    between atoms: _207  and  _210
REMARK   87  A    between atoms: _210  and  _211
REMARK   88  A    between atoms: _213  and  _215
REMARK   89  A    between atoms: _215  and  _216
REMARK   90  A    between atoms: _215  and  _218
REMARK   91  A    between atoms: _218  and  _219
REMARK   92  A    between atoms: _224  and  _226
REMARK   93  A    between atoms: _226  and  _227
REMARK   94  A    between atoms: _226  and  _229
REMARK   95  A    between atoms: _229  and  _230
REMARK   96  A    between atoms: _233  and  _235
REMARK   97  A    between atoms: _235  and  _236
REMARK   98  A    between atoms: _235  and  _238
REMARK   99  A    between atoms: _238  and  _239
REMARK  100  A    between atoms: _244  and  _246
REMARK  101  A    between atoms: _246  and  _247
REMARK  102  A    between atoms: _249  and  _251
REMARK  103  A    between atoms: _251  and  _252
REMARK  104  A    between atoms: _251  and  _254
REMARK  105  A    between atoms: _254  and  _255
REMARK  106  A    between atoms: _258  and  _260
REMARK  107  A    between atoms: _260  and  _261
REMARK  108  A    between atoms: _260  and  _263
REMARK  109  A    between atoms: _263  and  _264
REMARK  110  A    between atoms: _267  and  _269
REMARK  111  A    between atoms: _269  and  _270
REMARK  112  A    between atoms: _269  and  _272
REMARK  113  A    between atoms: _272  and  _273
REMARK  114  A    between atoms: _276  and  _278
REMARK  115  A    between atoms: _278  and  _279
REMARK  116  A    between atoms: _278  and  _281
REMARK  117  A    between atoms: _281  and  _282
REMARK  118  A    between atoms: _284  and  _286
REMARK  119  A    between atoms: _286  and  _287
REMARK  120  A    between atoms: _286  and  _289
REMARK  121  A    between atoms: _291  and  _293
REMARK  122  A    between atoms: _293  and  _294
REMARK  123  A    between atoms: _293  and  _296
REMARK  124  A    between atoms: _296  and  _297
REMARK  125  A    between atoms: _299  and  _301
REMARK  126  A    between atoms: _301  and  _302
REMARK  127  A    between atoms: _301  and  _304
REMARK  128  A    between atoms: _304  and  _305
REMARK  129  A    between atoms: _307  and  _309
REMARK  130  A    between atoms: _309  and  _310
REMARK  131  A    between atoms: _309  and  _312
REMARK  132  A    between atoms: _312  and  _313
REMARK  133  A    between atoms: _318  and  _320
REMARK  134  A    between atoms: _320  and  _321
REMARK  135  A    between atoms: _320  and  _323
REMARK  136  A    between atoms: _323  and  _324
REMARK  137  A    between atoms: _329  and  _330
REMARK  138  A    between atoms: _332  and  _334
REMARK  139  A    between atoms: _334  and  _335
REMARK  140  A    between atoms: _334  and  _337
REMARK  141  A    between atoms: _337  and  _338
REMARK  142  A    between atoms: _341  and  _343
REMARK  143  A    between atoms: _343  and  _344
REMARK  144  A    between atoms: _343  and  _346
REMARK  145  A    between atoms: _346  and  _347
REMARK  146  A    between atoms: _350  and  _352
REMARK  147  A    between atoms: _352  and  _353
REMARK  148  A    between atoms: _352  and  _355
REMARK  149  A    between atoms: _355  and  _356
REMARK  150  A    between atoms: _356  and  _357
REMARK  151  A    between atoms: _357  and  _358
REMARK  152  A    between atoms: _367  and  _369
REMARK  153  A    between atoms: _369  and  _370
REMARK  154  A    between atoms: _369  and  _372
REMARK  155  A    between atoms: _372  and  _373
REMARK  156  A    between atoms: _377  and  _378
REMARK  157  A    between atoms: _383  and  _385
REMARK  158  A    between atoms: _385  and  _386
REMARK  159  A    between atoms: _385  and  _388
REMARK  160  A    between atoms: _388  and  _389
REMARK  161  A    between atoms: _389  and  _390
REMARK  162  A    between atoms: _390  and  _391
REMARK  163  A    between atoms: _400  and  _402
REMARK  164  A    between atoms: _402  and  _403
REMARK  165  A    between atoms: _402  and  _405
REMARK  166  A    between atoms: _405  and  _406
REMARK  167  A    between atoms: _406  and  _407
REMARK  168  A    between atoms: _410  and  _412
REMARK  169  A    between atoms: _412  and  _413
REMARK  170  A    between atoms: _412  and  _415
REMARK  171  A    between atoms: _415  and  _416
REMARK  172  A    between atoms: _419  and  _421
REMARK  173  A    between atoms: _421  and  _422
REMARK  174  A    between atoms: _421  and  _424
REMARK  175  A    between atoms: _424  and  _425
REMARK  176  A    between atoms: _430  and  _432
REMARK  177  A    between atoms: _432  and  _433
REMARK  178  A    between atoms: _432  and  _435
REMARK  179  A    between atoms: _435  and  _436
REMARK  180  A    between atoms: _438  and  _440
REMARK  181  A    between atoms: _440  and  _441
REMARK  182  A    between atoms: _440  and  _443
REMARK  183  A    between atoms: _443  and  _444
REMARK  184  A    between atoms: _454  and  _456
REMARK  185  A    between atoms: _456  and  _457
REMARK  186  A    between atoms: _456  and  _459
REMARK  187  A    between atoms: _459  and  _460
REMARK  188  A    between atoms: _463  and  _465
REMARK  189  A    between atoms: _465  and  _466
REMARK  190  A    between atoms: _468  and  _470
REMARK  191  A    between atoms: _470  and  _471
REMARK  192  A    between atoms: _470  and  _473
REMARK  193  A    between atoms: _473  and  _474
REMARK  194  A    between atoms: _479  and  _481
REMARK  195  A    between atoms: _481  and  _482
REMARK  196  A    between atoms: _481  and  _484
REMARK  197  A    between atoms: _484  and  _485
REMARK  198  A    between atoms: _488  and  _490
REMARK  199  A    between atoms: _490  and  _491
REMARK  200  A    between atoms: _490  and  _493
REMARK  201  A    between atoms: _493  and  _494
REMARK  202  A    between atoms: _497  and  _499
REMARK  203  A    between atoms: _499  and  _500
REMARK  204  A    between atoms: _499  and  _502
REMARK  205  A    between atoms: _502  and  _503
REMARK  206  A    between atoms: _503  and  _504
REMARK  207  A    between atoms: _506  and  _508
REMARK  208  A    between atoms: _508  and  _509
REMARK  209  A    between atoms: _508  and  _511
REMARK  210  A    between atoms: _511  and  _512
REMARK  211  A    between atoms: _517  and  _518
REMARK  212  A    between atoms: _520  and  _522
REMARK  213  A    between atoms: _522  and  _523
REMARK  214  A    between atoms: _527  and  _528
REMARK  215  A    between atoms: _533  and  _535
REMARK  216  A    between atoms: _535  and  _536
REMARK  217  A    between atoms: _535  and  _538
REMARK  218  A    between atoms: _538  and  _539
REMARK  219  A    between atoms: _542  and  _544
REMARK  220  A    between atoms: _544  and  _545
REMARK  221  A    between atoms: _544  and  _547
REMARK  222  A    between atoms: _547  and  _548
REMARK  223  A    between atoms: _558  and  _560
REMARK  224  A    between atoms: _560  and  _561
REMARK  225  A    between atoms: _560  and  _563
REMARK  226  A    between atoms: _563  and  _564
REMARK  227  A    between atoms: _567  and  _569
REMARK  228  A    between atoms: _569  and  _570
REMARK  229  A    between atoms: _569  and  _572
REMARK  230  A    between atoms: _574  and  _576
REMARK  231  A    between atoms: _576  and  _577
REMARK  232  A    between atoms: _576  and  _579
REMARK  233  A    between atoms: _579  and  _580
REMARK  234  A    between atoms: _580  and  _581
REMARK  235  A    between atoms: _586  and  _588
REMARK  236  A    between atoms: _588  and  _589
REMARK  237  A    between atoms: _588  and  _591
REMARK  238  A    between atoms: _591  and  _592
REMARK  239  A    between atoms: _595  and  _597
REMARK  240  A    between atoms: _597  and  _598
REMARK  241  A    between atoms: _597  and  _600
REMARK  242  A    between atoms: _600  and  _601
REMARK  243  A    between atoms: _606  and  _607
REMARK  244  A    between atoms: _609  and  _611
REMARK  245  A    between atoms: _611  and  _612
REMARK  246  A    between atoms: _614  and  _616
REMARK  247  A    between atoms: _616  and  _617
REMARK  248  A    between atoms: _620  and  _622
REMARK  249  A    between atoms: _622  and  _623
REMARK  250  A    between atoms: _622  and  _625
REMARK  251  A    between atoms: _627  and  _629
REMARK  252  A    between atoms: _629  and  _630
REMARK  253  A    between atoms: _629  and  _632
REMARK  254  A    between atoms: _632  and  _633
REMARK  255  A    between atoms: _638  and  _639
REMARK  256  A    between atoms: _641  and  _643
REMARK  257  A    between atoms: _643  and  _644
REMARK  258  A    between atoms: _643  and  _646
REMARK  259  A    between atoms: _646  and  _647
REMARK  260  A    between atoms: _650  and  _652
REMARK  261  A    between atoms: _652  and  _653
REMARK  262  A    between atoms: _652  and  _655
REMARK  263  A    between atoms: _655  and  _656
REMARK  264  A    between atoms: _661  and  _663
REMARK  265  A    between atoms: _663  and  _664
REMARK  266  A    between atoms: _663  and  _666
REMARK  267  A    between atoms: _666  and  _667
REMARK  268  A    between atoms: _673  and  _675
REMARK  269  A    between atoms: _675  and  _676
REMARK  270  A    between atoms: _679  and  _681
REMARK  271  A    between atoms: _681  and  _682
REMARK  272  A    between atoms: _684  and  _686
REMARK  273  A    between atoms: _686  and  _687
REMARK  274  A    between atoms: _686  and  _689
REMARK  275  A    between atoms: _689  and  _690
REMARK  276  A    between atoms: _695  and  _696
REMARK  277  A    between atoms: _698  and  _700
REMARK  278  A    between atoms: _700  and  _701
REMARK  279  A    between atoms: _700  and  _703
REMARK  280  A    between atoms: _703  and  _704
REMARK  281  A    between atoms: _706  and  _708
REMARK  282  A    between atoms: _708  and  _709
REMARK  283  A    between atoms: _711  and  _713
REMARK  284  A    between atoms: _713  and  _714
REMARK                            x       y       z     vdW  Elec       q    Type
REMARK                         _______ _______ _______ _____ _____    ______ ____
ROOT
ATOM      1  CA  LYS A   4      22.958  16.529  26.482  0.00  0.00    +0.149 C 
ENDROOT
BRANCH   1   4
ATOM      2  C   PRO A   3      23.940  14.987  28.091  0.00  0.00    +0.241 C 
ATOM      3  O   PRO A   3      25.088  15.369  27.857  0.00  0.00    -0.273 OA
ATOM      4  N   LYS A   4      22.850  15.498  27.512  0.00  0.00    -0.297 N 
ATOM      5  H   LYS A   4      21.910  15.157  27.799  0.00  0.00    +0.150 HD
BRANCH   2  12
ATOM      6  C   SER A   2      22.636  15.296  30.764  0.00  0.00    +0.246 C 
ATOM      7  O   SER A   2      23.527  16.131  30.651  0.00  0.00    -0.273 OA
ATOM      8  N   PRO A   3      22.617  14.164  30.041  0.00  0.00    -0.272 N 
ATOM      9  CD  PRO A   3      21.637  13.050  30.065  0.00  0.00    +0.094 C 
ATOM     10  CG  PRO A   3      22.382  11.931  29.480  0.00  0.00    +0.024 C 
ATOM     11  CB  PRO A   3      23.295  12.581  28.459  0.00  0.00    +0.031 C 
ATOM     12  CA  PRO A   3      23.718  13.890  29.125  0.00  0.00    +0.152 C 
BRANCH   6  13
ATOM     13  CA  SER A   2      21.502  15.493  31.790  0.00  0.00    +0.178 C 
BRANCH  13  16
ATOM     14  C   TYR A   1      22.799  16.576  33.521  0.00  0.00    +0.239 C 
ATOM     15  O   TYR A   1      23.247  15.518  33.949  0.00  0.00    -0.274 OA
ATOM     16  N   SER A   2      21.829  16.637  32.627  0.00  0.00    -0.295 N 
ATOM     17  H   SER A   2      21.289  17.519  32.519  0.00  0.00    +0.150 HD
BRANCH  14  18
ATOM     18  CA  TYR A   1      23.352  17.919  33.985  0.00  0.00    +0.149 C 
BRANCH  18  19
ATOM     19  N   TYR A   1      23.505  17.974  35.426  0.00  0.00    -0.238 NA
ATOM     20  H   TYR A   1      24.345  17.552  35.872  0.00  0.00    +0.142 HD
ENDBRANCH  18  19
BRANCH  18  21
ATOM     21  CB  TYR A   1      24.706  18.174  33.303  0.00  0.00    +0.053 C 
BRANCH  21  22
ATOM     22  CG  TYR A   1      25.322  19.505  33.666  0.00  0.00    -0.020 A 
ATOM     23  CD2 TYR A   1      26.509  19.573  34.385  0.00  0.00    -0.001 A 
ATOM     24  CE2 TYR A   1      27.072  20.783  34.714  0.00  0.00    +0.036 A 
ATOM     25  CZ  TYR A   1      26.450  21.960  34.316  0.00  0.00    +0.134 A 
ATOM     26  CE1 TYR A   1      25.281  21.932  33.605  0.00  0.00    +0.036 A 
ATOM     27  CD1 TYR A   1      24.716  20.702  33.278  0.00  0.00    -0.001 A 
BRANCH  25  28
ATOM     28  OH  TYR A   1      27.004  23.164  34.638  0.00  0.00    -0.506 OA
ATOM     29  HH  TYR A   1      27.065  23.245  35.623  0.00  0.00    +0.292 HD
ENDBRANCH  25  28
ENDBRANCH  21  22
ENDBRANCH  18  21
ENDBRANCH  14  18
ENDBRANCH  13  16
BRANCH  13  30
ATOM     30  CB  SER A   2      20.194  15.733  31.058  0.00  0.00    +0.166 C 
BRANCH  30  31
ATOM     31  OG  SER A   2      20.437  16.603  29.975  0.00  0.00    -0.380 OA
ATOM     32  H   SER A   2      19.590  16.768  29.489  0.00  0.00    +0.211 HD
ENDBRANCH  30  31
ENDBRANCH  13  30
ENDBRANCH   6  13
ENDBRANCH   2  12
ENDBRANCH   1   4
BRANCH   1  33
ATOM     33  C   LYS A   4      23.440  17.863  27.072  0.00  0.00    +0.241 C 
ATOM     34  N   GLN A   5      23.014  18.138  28.301  0.00  0.00    -0.297 N 
ATOM     35  H   GLN A   5      22.399  17.457  28.790  0.00  0.00    +0.150 HD
ATOM     36  O   LYS A   4      24.168  18.626  26.413  0.00  0.00    -0.273 OA
BRANCH  34  37
ATOM     37  CA  GLN A   5      23.389  19.371  28.978  0.00  0.00    +0.149 C 
BRANCH  37  38
ATOM     38  C   GLN A   5      24.825  19.345  29.377  0.00  0.00    +0.241 C 
ATOM     39  N   ARG A   6      25.277  18.165  29.790  0.00  0.00    -0.297 N 
ATOM     40  H   ARG A   6      24.624  17.356  29.801  0.00  0.00    +0.150 HD
ATOM     41  O   GLN A   5      25.499  20.367  29.336  0.00  0.00    -0.273 OA
BRANCH  39  42
ATOM     42  CA  ARG A   6      26.640  17.963  30.224  0.00  0.00    +0.149 C 
BRANCH  42  43
ATOM     43  C   ARG A   6      27.610  18.090  29.078  0.00  0.00    +0.241 C 
ATOM     44  O   ARG A   6      28.683  18.670  29.209  0.00  0.00    -0.273 OA
ATOM     45  N   VAL A   7      27.241  17.516  27.952  0.00  0.00    -0.298 N 
ATOM     46  H   VAL A   7      26.348  16.983  27.914  0.00  0.00    +0.150 HD
BRANCH  45  47
ATOM     47  CA  VAL A   7      28.070  17.619  26.758  0.00  0.00    +0.137 C 
BRANCH  47  48
ATOM     48  CB  VAL A   7      27.605  16.563  25.664  0.00  0.00    +0.026 C 
ATOM     49  CG2 VAL A   7      28.786  15.842  25.105  0.00  0.00    +0.002 C 
ATOM     50  CG1 VAL A   7      26.853  17.167  24.548  0.00  0.00    +0.002 C 
ENDBRANCH  47  48
BRANCH  47  51
ATOM     51  C   VAL A   7      28.077  19.097  26.306  0.00  0.00    +0.227 C 
ATOM     52  O   VAL A   7      29.131  19.677  26.008  0.00  0.00    -0.286 OA
ENDBRANCH  47  51
ENDBRANCH  45  47
ENDBRANCH  42  43
BRANCH  42  53
ATOM     53  CB  ARG A   6      26.772  16.572  30.832  0.00  0.00    +0.033 C 
BRANCH  53  54
ATOM     54  CG  ARG A   6      28.123  16.255  31.383  0.00  0.00    +0.045 C 
BRANCH  54  55
ATOM     55  CD  ARG A   6      28.169  14.803  31.806  0.00  0.00    +0.174 C 
BRANCH  55  56
ATOM     56  NE  ARG A   6      28.932  14.644  33.035  0.00  0.00    -0.265 N 
ATOM     57  HE  ARG A   6      28.416  14.717  33.935  0.00  0.00    +0.259 HD
ATOM     58  CZ  ARG A   6      30.229  14.414  33.092  0.00  0.00    +0.342 C 
ATOM     59  NH2 ARG A   6      30.784  14.293  34.293  0.00  0.00    -0.292 N 
ATOM     60 HH21 ARG A   6      30.198  14.380  35.148  0.00  0.00    +0.255 HD
ATOM     61 HH22 ARG A   6      31.804  14.111  34.378  0.00  0.00    +0.255 HD
ATOM     62  NH1 ARG A   6      30.960  14.297  31.965  0.00  0.00    -0.292 N 
ATOM     63 HH11 ARG A   6      31.982  14.116  32.025  0.00  0.00    +0.255 HD
ATOM     64 HH12 ARG A   6      30.502  14.388  31.036  0.00  0.00    +0.255 HD
ENDBRANCH  55  56
ENDBRANCH  54  55
ENDBRANCH  53  54
ENDBRANCH  42  53
ENDBRANCH  39  42
ENDBRANCH  37  38
BRANCH  37  65
ATOM     65  CB  GLN A   5      22.562  19.565  30.230  0.00  0.00    +0.039 C 
BRANCH  65  66
ATOM     66  CG  GLN A   5      21.160  19.960  29.924  0.00  0.00    +0.087 C 
BRANCH  66  67
ATOM     67  CD  GLN A   5      20.258  19.870  31.126  0.00  0.00    +0.219 C 
ATOM     68  OE1 GLN A   5      20.628  19.331  32.198  0.00  0.00    -0.275 OA
ATOM     69  NE2 GLN A   5      19.054  20.388  30.960  0.00  0.00    -0.329 N 
ATOM     70 HE21 GLN A   5      18.364  20.360  31.738  0.00  0.00    +0.145 HD
ATOM     71 HE22 GLN A   5      18.796  20.824  30.052  0.00  0.00    +0.145 HD
ENDBRANCH  66  67
ENDBRANCH  65  66
ENDBRANCH  37  65
ENDBRANCH  34  37
ENDBRANCH   1  33
BRANCH   1  72
ATOM     72  CB  LYS A   4      21.634  16.678  25.679  0.00  0.00    +0.029 C 
BRANCH  72  73
ATOM     73  CG  LYS A   4      20.497  17.455  26.356  0.00  0.00    +0.000 C 
BRANCH  73  74
ATOM     74  CD  LYS A   4      19.256  17.690  25.395  0.00  0.00    -0.024 C 
BRANCH  74  75
ATOM     75  CE  LYS A   4      19.631  18.457  24.067  0.00  0.00    -0.086 C 
BRANCH  75  76
ATOM     76  NZ  LYS A   4      18.503  18.673  23.023  0.00  0.00    +0.380 N 
ATOM     77  HZ1 LYS A   4      17.735  19.226  23.454  0.00  0.00    -0.089 HD
ATOM     78  HZ2 LYS A   4      18.136  17.750  22.715  0.00  0.00    -0.089 HD
ATOM     79  HZ3 LYS A   4      18.885  19.187  22.203  0.00  0.00    -0.089 HD
ENDBRANCH  75  76
ENDBRANCH  74  75
ENDBRANCH  73  74
ENDBRANCH  72  73
ENDBRANCH   1  72
TORSDOF 31
REMARK  Name = ../refined-set-2016/3gnw/3gnw_pocket.pdb
REMARK  284 active torsions:
REMARK  status: ('A' for Active; 'I' for Inactive)
REMARK    1  A    between atoms: _1  and  _3
REMARK    2  A    between atoms: _3  and  _4
REMARK    3  A    between atoms: _3  and  _6
REMARK    4  A    between atoms: _6  and  _7
REMARK    5  A    between atoms: _7  and  _8
REMARK    6  A    between atoms: _8  and  _9
REMARK    7  A    between atoms: _9  and  _10
REMARK    8  A    between atoms: _14  and  _16
REMARK    9  A    between atoms: _16  and  _17
REMARK   10  A    between atoms: _16  and  _19
REMARK   11  A    between atoms: _19  and  _20
REMARK   12  A    between atoms: _20  and  _21
REMARK   13  A    between atoms: _24  and  _26
REMARK   14  A    between atoms: _26  and  _27
REMARK   15  A    between atoms: _26  and  _29
REMARK   16  A    between atoms: _29  and  _30
REMARK   17  A    between atoms: _36  and  _38
REMARK   18  A    between atoms: _38  and  _39
REMARK   19  A    between atoms: _38  and  _41
REMARK   20  A    between atoms: _41  and  _42
REMARK   21  A    between atoms: _42  and  _43
REMARK   22  A    between atoms: _43  and  _44
REMARK   23  A    between atoms: _53  and  _55
REMARK   24  A    between atoms: _55  and  _56
REMARK   25  A    between atoms: _55  and  _58
REMARK   26  A    between atoms: _58  and  _59
REMARK   27  A    between atoms: _62  and  _64
REMARK   28  A    between atoms: _64  and  _65
REMARK   29  A    between atoms: _67  and  _69
REMARK   30  A    between atoms: _69  and  _70
REMARK   31  A    between atoms: _69  and  _72
REMARK   32  A    between atoms: _72  and  _73
REMARK   33  A    between atoms: _79  and  _81
REMARK   34  A    between atoms: _81  and  _82
REMARK   35  A    between atoms: _81  and  _84
REMARK   36  A    between atoms: _84  and  _85
REMARK   37  A    between atoms: _90  and  _91
REMARK   38  A    between atoms: _93  and  _95
REMARK   39  A    between atoms: _95  and  _96
REMARK   40  A    between atoms: _95  and  _98
REMARK   41  A    between atoms: _98  and  _99
REMARK   42  A    between atoms: _102  and  _103
REMARK   43  A    between atoms: _108  and  _110
REMARK   44  A    between atoms: _110  and  _111
REMARK   45  A    between atoms: _110  and  _113
REMARK   46  A    between atoms: _113  and  _114
REMARK   47  A    between atoms: _114  and  _115
REMARK   48  A    between atoms: _115  and  _116
REMARK   49  A    between atoms: _116  and  _117
REMARK   50  A    between atoms: _121  and  _123
REMARK   51  A    between atoms: _123  and  _124
REMARK   52  A    between atoms: _123  and  _126
REMARK   53  A    between atoms: _126  and  _127
REMARK   54  A    between atoms: _127  and  _128
REMARK   55  A    between atoms: _133  and  _135
REMARK   56  A    between atoms: _135  and  _136
REMARK   57  A    between atoms: _135  and  _138
REMARK   58  A    between atoms: _138  and  _139
REMARK   59  A    between atoms: _139  and  _140
REMARK   60  A    between atoms: _140  and  _141
REMARK   61  A    between atoms: _150  and  _152
REMARK   62  A    between atoms: _152  and  _153
REMARK   63  A    between atoms: _152  and  _155
REMARK   64  A    between atoms: _158  and  _160
REMARK   65  A    between atoms: _160  and  _161
REMARK   66  A    between atoms: _160  and  _163
REMARK   67  A    between atoms: _163  and  _164
REMARK   68  A    between atoms: _167  and  _169
REMARK   69  A    between atoms: _169  and  _170
REMARK   70  A    between atoms: _169  and  _172
REMARK   71  A    between atoms: _172  and  _173
REMARK   72  A    between atoms: _179  and  _181
REMARK   73  A    between atoms: _181  and  _182
REMARK   74  A    between atoms: _181  and  _184
REMARK   75  A    between atoms: _184  and  _185
REMARK   76  A    between atoms: _188  and  _190
REMARK   77  A    between atoms: _190  and  _191
REMARK   78  A    between atoms: _190  and  _193
REMARK   79  A    between atoms: _193  and  _194
REMARK   80  A    between atoms: _196  and  _198
REMARK   81  A    between atoms: _198  and  _199
REMARK   82  A    between atoms: _198  and  _201
REMARK   83  A    between atoms: _201  and  _202
REMARK   84  A    between atoms: _205  and  _207
REMARK   85  A    between atoms: _207  and  _208
REMARK   86  A    between atoms: _207  and  _210
REMARK   87  A    between atoms: _210  and  _211
REMARK   88  A    between atoms: _213  and  _215
REMARK   89  A    between atoms: _215  and  _216
REMARK   90  A    between atoms: _215  and  _218
REMARK   91  A    between atoms: _218  and  _219
REMARK   92  A    between atoms: _224  and  _226
REMARK   93  A    between atoms: _226  and  _227
REMARK   94  A    between atoms: _226  and  _229
REMARK   95  A    between atoms: _229  and  _230
REMARK   96  A    between atoms: _233  and  _235
REMARK   97  A    between atoms: _235  and  _236
REMARK   98  A    between atoms: _235  and  _238
REMARK   99  A    between atoms: _238  and  _239
REMARK  100  A    between atoms: _244  and  _246
REMARK  101  A    between atoms: _246  and  _247
REMARK  102  A    between atoms: _249  and  _251
REMARK  103  A    between atoms: _251  and  _252
REMARK  104  A    between atoms: _251  and  _254
REMARK  105  A    between atoms: _254  and  _255
REMARK  106  A    between atoms: _258  and  _260
REMARK  107  A    between atoms: _260  and  _261
REMARK  108  A    between atoms: _260  and  _263
REMARK  109  A    between atoms: _263  and  _264
REMARK  110  A    between atoms: _267  and  _269
REMARK  111  A    between atoms: _269  and  _270
REMARK  112  A    between atoms: _269  and  _272
REMARK  113  A    between atoms: _272  and  _273
REMARK  114  A    between atoms: _276  and  _278
REMARK  115  A    between atoms: _278  and  _279
REMARK  116  A    between atoms: _278  and  _281
REMARK  117  A    between atoms: _281  and  _282
REMARK  118  A    between atoms: _284  and  _286
REMARK  119  A    between atoms: _286  and  _287
REMARK  120  A    between atoms: _286  and  _289
REMARK  121  A    between atoms: _291  and  _293
REMARK  122  A    between atoms: _293  and  _294
REMARK  123  A    between atoms: _293  and  _296
REMARK  124  A    between atoms: _296  and  _297
REMARK  125  A    between atoms: _299  and  _301
REMARK  126  A    between atoms: _301  and  _302
REMARK  127  A    between atoms: _301  and  _304
REMARK  128  A    between atoms: _304  and  _305
REMARK  129  A    between atoms: _307  and  _309
REMARK  130  A    between atoms: _309  and  _310
REMARK  131  A    between atoms: _309  and  _312
REMARK  132  A    between atoms: _312  and  _313
REMARK  133  A    between atoms: _318  and  _320
REMARK  134  A    between atoms: _320  and  _321
REMARK  135  A    between atoms: _320  and  _323
REMARK  136  A    between atoms: _323  and  _324
REMARK  137  A    between atoms: _329  and  _330
REMARK  138  A    between atoms: _332  and  _334
REMARK  139  A    between atoms: _334  and  _335
REMARK  140  A    between atoms: _334  and  _337
REMARK  141  A    between atoms: _337  and  _338
REMARK  142  A    between atoms: _341  and  _343
REMARK  143  A    between atoms: _343  and  _344
REMARK  144  A    between atoms: _343  and  _346
REMARK  145  A    between atoms: _346  and  _347
REMARK  146  A    between atoms: _350  and  _352
REMARK  147  A    between atoms: _352  and  _353
REMARK  148  A    between atoms: _352  and  _355
REMARK  149  A    between atoms: _355  and  _356
REMARK  150  A    between atoms: _356  and  _357
REMARK  151  A    between atoms: _357  and  _358
REMARK  152  A    between atoms: _367  and  _369
REMARK  153  A    between atoms: _369  and  _370
REMARK  154  A    between atoms: _369  and  _372
REMARK  155  A    between atoms: _372  and  _373
REMARK  156  A    between atoms: _377  and  _378
REMARK  157  A    between atoms: _383  and  _385
REMARK  158  A    between atoms: _385  and  _386
REMARK  159  A    between atoms: _385  and  _388
REMARK  160  A    between atoms: _388  and  _389
REMARK  161  A    between atoms: _389  and  _390
REMARK  162  A    between atoms: _390  and  _391
REMARK  163  A    between atoms: _400  and  _402
REMARK  164  A    between atoms: _402  and  _403
REMARK  165  A    between atoms: _402  and  _405
REMARK  166  A    between atoms: _405  and  _406
REMARK  167  A    between atoms: _406  and  _407
REMARK  168  A    between atoms: _410  and  _412
REMARK  169  A    between atoms: _412  and  _413
REMARK  170  A    between atoms: _412  and  _415
REMARK  171  A    between atoms: _415  and  _416
REMARK  172  A    between atoms: _419  and  _421
REMARK  173  A    between atoms: _421  and  _422
REMARK  174  A    between atoms: _421  and  _424
REMARK  175  A    between atoms: _424  and  _425
REMARK  176  A    between atoms: _430  and  _432
REMARK  177  A    between atoms: _432  and  _433
REMARK  178  A    between atoms: _432  and  _435
REMARK  179  A    between atoms: _435  and  _436
REMARK  180  A    between atoms: _438  and  _440
REMARK  181  A    between atoms: _440  and  _441
REMARK  182  A    between atoms: _440  and  _443
REMARK  183  A    between atoms: _443  and  _444
REMARK  184  A    between atoms: _454  and  _456
REMARK  185  A    between atoms: _456  and  _457
REMARK  186  A    between atoms: _456  and  _459
REMARK  187  A    between atoms: _459  and  _460
REMARK  188  A    between atoms: _463  and  _465
REMARK  189  A    between atoms: _465  and  _466
REMARK  190  A    between atoms: _468  and  _470
REMARK  191  A    between atoms: _470  and  _471
REMARK  192  A    between atoms: _470  and  _473
REMARK  193  A    between atoms: _473  and  _474
REMARK  194  A    between atoms: _479  and  _481
REMARK  195  A    between atoms: _481  and  _482
REMARK  196  A    between atoms: _481  and  _484
REMARK  197  A    between atoms: _484  and  _485
REMARK  198  A    between atoms: _488  and  _490
REMARK  199  A    between atoms: _490  and  _491
REMARK  200  A    between atoms: _490  and  _493
REMARK  201  A    between atoms: _493  and  _494
REMARK  202  A    between atoms: _497  and  _499
REMARK  203  A    between atoms: _499  and  _500
REMARK  204  A    between atoms: _499  and  _502
REMARK  205  A    between atoms: _502  and  _503
REMARK  206  A    between atoms: _503  and  _504
REMARK  207  A    between atoms: _506  and  _508
REMARK  208  A    between atoms: _508  and  _509
REMARK  209  A    between atoms: _508  and  _511
REMARK  210  A    between atoms: _511  and  _512
REMARK  211  A    between atoms: _517  and  _518
REMARK  212  A    between atoms: _520  and  _522
REMARK  213  A    between atoms: _522  and  _523
REMARK  214  A    between atoms: _527  and  _528
REMARK  215  A    between atoms: _533  and  _535
REMARK  216  A    between atoms: _535  and  _536
REMARK  217  A    between atoms: _535  and  _538
REMARK  218  A    between atoms: _538  and  _539
REMARK  219  A    between atoms: _542  and  _544
REMARK  220  A    between atoms: _544  and  _545
REMARK  221  A    between atoms: _544  and  _547
REMARK  222  A    between atoms: _547  and  _548
REMARK  223  A    between atoms: _558  and  _560
REMARK  224  A    between atoms: _560  and  _561
REMARK  225  A    between atoms: _560  and  _563
REMARK  226  A    between atoms: _563  and  _564
REMARK  227  A    between atoms: _567  and  _569
REMARK  228  A    between atoms: _569  and  _570
REMARK  229  A    between atoms: _569  and  _572
REMARK  230  A    between atoms: _574  and  _576
REMARK  231  A    between atoms: _576  and  _577
REMARK  232  A    between atoms: _576  and  _579
REMARK  233  A    between atoms: _579  and  _580
REMARK  234  A    between atoms: _580  and  _581
REMARK  235  A    between atoms: _586  and  _588
REMARK  236  A    between atoms: _588  and  _589
REMARK  237  A    between atoms: _588  and  _591
REMARK  238  A    between atoms: _591  and  _592
REMARK  239  A    between atoms: _595  and  _597
REMARK  240  A    between atoms: _597  and  _598
REMARK  241  A    between atoms: _597  and  _600
REMARK  242  A    between atoms: _600  and  _601
REMARK  243  A    between atoms: _606  and  _607
REMARK  244  A    between atoms: _609  and  _611
REMARK  245  A    between atoms: _611  and  _612
REMARK  246  A    between atoms: _614  and  _616
REMARK  247  A    between atoms: _616  and  _617
REMARK  248  A    between atoms: _620  and  _622
REMARK  249  A    between atoms: _622  and  _623
REMARK  250  A    between atoms: _622  and  _625
REMARK  251  A    between atoms: _627  and  _629
REMARK  252  A    between atoms: _629  and  _630
REMARK  253  A    between atoms: _629  and  _632
REMARK  254  A    between atoms: _632  and  _633
REMARK  255  A    between atoms: _638  and  _639
REMARK  256  A    between atoms: _641  and  _643
REMARK  257  A    between atoms: _643  and  _644
REMARK  258  A    between atoms: _643  and  _646
REMARK  259  A    between atoms: _646  and  _647
REMARK  260  A    between atoms: _650  and  _652
REMARK  261  A    between atoms: _652  and  _653
REMARK  262  A    between atoms: _652  and  _655
REMARK  263  A    between atoms: _655  and  _656
REMARK  264  A    between atoms: _661  and  _663
REMARK  265  A    between atoms: _663  and  _664
REMARK  266  A    between atoms: _663  and  _666
REMARK  267  A    between atoms: _666  and  _667
REMARK  268  A    between atoms: _673  and  _675
REMARK  269  A    between atoms: _675  and  _676
REMARK  270  A    between atoms: _679  and  _681
REMARK  271  A    between atoms: _681  and  _682
REMARK  272  A    between atoms: _684  and  _686
REMARK  273  A    between atoms: _686  and  _687
REMARK  274  A    between atoms: _686  and  _689
REMARK  275  A    between atoms: _689  and  _690
REMARK  276  A    between atoms: _695  and  _696
REMARK  277  A    between atoms: _698  and  _700
REMARK  278  A    between atoms: _700  and  _701
REMARK  279  A    between atoms: _700  and  _703
REMARK  280  A    between atoms: _703  and  _704
REMARK  281  A    between atoms: _706  and  _708
REMARK  282  A    between atoms: _708  and  _709
REMARK  283  A    between atoms: _711  and  _713
REMARK  284  A    between atoms: _713  and  _714
REMARK                            x       y       z     vdW  Elec       q    Type
REMARK                         _______ _______ _______ _____ _____    ______ ____
ROOT
ATOM      1  CA  LEU A   1      31.947  20.733  28.307  0.00  0.00    +0.133 C 
ENDROOT
BRANCH   1   2
ATOM      2  N   LEU A   1      30.539  21.047  28.542  0.00  0.00    -0.239 NA
ATOM      3  H   LEU A   1      29.830  20.292  28.445  0.00  0.00    +0.142 HD
ENDBRANCH   1   2
BRANCH   1   4
ATOM      4  C   LEU A   1      32.442  21.364  27.016  0.00  0.00    +0.224 C 
ATOM      5  O   LEU A   1      33.546  21.918  26.961  0.00  0.00    -0.287 OA
ENDBRANCH   1   4
BRANCH   1   6
ATOM      6  CB  LEU A   1      32.136  19.218  28.238  0.00  0.00    +0.025 C 
BRANCH   6   7
ATOM      7  CG  LEU A   1      32.116  18.495  29.595  0.00  0.00    +0.002 C 
ATOM      8  CD2 LEU A   1      33.338  18.911  30.424  0.00  0.00    +0.000 C 
ATOM      9  CD1 LEU A   1      32.092  16.961  29.388  0.00  0.00    +0.000 C 
ENDBRANCH   6   7
ENDBRANCH   1   6
TORSDOF 4
REMARK  Name = ../refined-set-2016/3gnw/3gnw_pocket.pdb
REMARK  284 active torsions:
REMARK  status: ('A' for Active; 'I' for Inactive)
REMARK    1  A    between atoms: _1  and  _3
REMARK    2  A    between atoms: _3  and  _4
REMARK    3  A    between atoms: _3  and  _6
REMARK    4  A    between atoms: _6  and  _7
REMARK    5  A    between atoms: _7  and  _8
REMARK    6  A    between atoms: _8  and  _9
REMARK    7  A    between atoms: _9  and  _10
REMARK    8  A    between atoms: _14  and  _16
REMARK    9  A    between atoms: _16  and  _17
REMARK   10  A    between atoms: _16  and  _19
REMARK   11  A    between atoms: _19  and  _20
REMARK   12  A    between atoms: _20  and  _21
REMARK   13  A    between atoms: _24  and  _26
REMARK   14  A    between atoms: _26  and  _27
REMARK   15  A    between atoms: _26  and  _29
REMARK   16  A    between atoms: _29  and  _30
REMARK   17  A    between atoms: _36  and  _38
REMARK   18  A    between atoms: _38  and  _39
REMARK   19  A    between atoms: _38  and  _41
REMARK   20  A    between atoms: _41  and  _42
REMARK   21  A    between atoms: _42  and  _43
REMARK   22  A    between atoms: _43  and  _44
REMARK   23  A    between atoms: _53  and  _55
REMARK   24  A    between atoms: _55  and  _56
REMARK   25  A    between atoms: _55  and  _58
REMARK   26  A    between atoms: _58  and  _59
REMARK   27  A    between atoms: _62  and  _64
REMARK   28  A    between atoms: _64  and  _65
REMARK   29  A    between atoms: _67  and  _69
REMARK   30  A    between atoms: _69  and  _70
REMARK   31  A    between atoms: _69  and  _72
REMARK   32  A    between atoms: _72  and  _73
REMARK   33  A    between atoms: _79  and  _81
REMARK   34  A    between atoms: _81  and  _82
REMARK   35  A    between atoms: _81  and  _84
REMARK   36  A    between atoms: _84  and  _85
REMARK   37  A    between atoms: _90  and  _91
REMARK   38  A    between atoms: _93  and  _95
REMARK   39  A    between atoms: _95  and  _96
REMARK   40  A    between atoms: _95  and  _98
REMARK   41  A    between atoms: _98  and  _99
REMARK   42  A    between atoms: _102  and  _103
REMARK   43  A    between atoms: _108  and  _110
REMARK   44  A    between atoms: _110  and  _111
REMARK   45  A    between atoms: _110  and  _113
REMARK   46  A    between atoms: _113  and  _114
REMARK   47  A    between atoms: _114  and  _115
REMARK   48  A    between atoms: _115  and  _116
REMARK   49  A    between atoms: _116  and  _117
REMARK   50  A    between atoms: _121  and  _123
REMARK   51  A    between atoms: _123  and  _124
REMARK   52  A    between atoms: _123  and  _126
REMARK   53  A    between atoms: _126  and  _127
REMARK   54  A    between atoms: _127  and  _128
REMARK   55  A    between atoms: _133  and  _135
REMARK   56  A    between atoms: _135  and  _136
REMARK   57  A    between atoms: _135  and  _138
REMARK   58  A    between atoms: _138  and  _139
REMARK   59  A    between atoms: _139  and  _140
REMARK   60  A    between atoms: _140  and  _141
REMARK   61  A    between atoms: _150  and  _152
REMARK   62  A    between atoms: _152  and  _153
REMARK   63  A    between atoms: _152  and  _155
REMARK   64  A    between atoms: _158  and  _160
REMARK   65  A    between atoms: _160  and  _161
REMARK   66  A    between atoms: _160  and  _163
REMARK   67  A    between atoms: _163  and  _164
REMARK   68  A    between atoms: _167  and  _169
REMARK   69  A    between atoms: _169  and  _170
REMARK   70  A    between atoms: _169  and  _172
REMARK   71  A    between atoms: _172  and  _173
REMARK   72  A    between atoms: _179  and  _181
REMARK   73  A    between atoms: _181  and  _182
REMARK   74  A    between atoms: _181  and  _184
REMARK   75  A    between atoms: _184  and  _185
REMARK   76  A    between atoms: _188  and  _190
REMARK   77  A    between atoms: _190  and  _191
REMARK   78  A    between atoms: _190  and  _193
REMARK   79  A    between atoms: _193  and  _194
REMARK   80  A    between atoms: _196  and  _198
REMARK   81  A    between atoms: _198  and  _199
REMARK   82  A    between atoms: _198  and  _201
REMARK   83  A    between atoms: _201  and  _202
REMARK   84  A    between atoms: _205  and  _207
REMARK   85  A    between atoms: _207  and  _208
REMARK   86  A    between atoms: _207  and  _210
REMARK   87  A    between atoms: _210  and  _211
REMARK   88  A    between atoms: _213  and  _215
REMARK   89  A    between atoms: _215  and  _216
REMARK   90  A    between atoms: _215  and  _218
REMARK   91  A    between atoms: _218  and  _219
REMARK   92  A    between atoms: _224  and  _226
REMARK   93  A    between atoms: _226  and  _227
REMARK   94  A    between atoms: _226  and  _229
REMARK   95  A    between atoms: _229  and  _230
REMARK   96  A    between atoms: _233  and  _235
REMARK   97  A    between atoms: _235  and  _236
REMARK   98  A    between atoms: _235  and  _238
REMARK   99  A    between atoms: _238  and  _239
REMARK  100  A    between atoms: _244  and  _246
REMARK  101  A    between atoms: _246  and  _247
REMARK  102  A    between atoms: _249  and  _251
REMARK  103  A    between atoms: _251  and  _252
REMARK  104  A    between atoms: _251  and  _254
REMARK  105  A    between atoms: _254  and  _255
REMARK  106  A    between atoms: _258  and  _260
REMARK  107  A    between atoms: _260  and  _261
REMARK  108  A    between atoms: _260  and  _263
REMARK  109  A    between atoms: _263  and  _264
REMARK  110  A    between atoms: _267  and  _269
REMARK  111  A    between atoms: _269  and  _270
REMARK  112  A    between atoms: _269  and  _272
REMARK  113  A    between atoms: _272  and  _273
REMARK  114  A    between atoms: _276  and  _278
REMARK  115  A    between atoms: _278  and  _279
REMARK  116  A    between atoms: _278  and  _281
REMARK  117  A    between atoms: _281  and  _282
REMARK  118  A    between atoms: _284  and  _286
REMARK  119  A    between atoms: _286  and  _287
REMARK  120  A    between atoms: _286  and  _289
REMARK  121  A    between atoms: _291  and  _293
REMARK  122  A    between atoms: _293  and  _294
REMARK  123  A    between atoms: _293  and  _296
REMARK  124  A    between atoms: _296  and  _297
REMARK  125  A    between atoms: _299  and  _301
REMARK  126  A    between atoms: _301  and  _302
REMARK  127  A    between atoms: _301  and  _304
REMARK  128  A    between atoms: _304  and  _305
REMARK  129  A    between atoms: _307  and  _309
REMARK  130  A    between atoms: _309  and  _310
REMARK  131  A    between atoms: _309  and  _312
REMARK  132  A    between atoms: _312  and  _313
REMARK  133  A    between atoms: _318  and  _320
REMARK  134  A    between atoms: _320  and  _321
REMARK  135  A    between atoms: _320  and  _323
REMARK  136  A    between atoms: _323  and  _324
REMARK  137  A    between atoms: _329  and  _330
REMARK  138  A    between atoms: _332  and  _334
REMARK  139  A    between atoms: _334  and  _335
REMARK  140  A    between atoms: _334  and  _337
REMARK  141  A    between atoms: _337  and  _338
REMARK  142  A    between atoms: _341  and  _343
REMARK  143  A    between atoms: _343  and  _344
REMARK  144  A    between atoms: _343  and  _346
REMARK  145  A    between atoms: _346  and  _347
REMARK  146  A    between atoms: _350  and  _352
REMARK  147  A    between atoms: _352  and  _353
REMARK  148  A    between atoms: _352  and  _355
REMARK  149  A    between atoms: _355  and  _356
REMARK  150  A    between atoms: _356  and  _357
REMARK  151  A    between atoms: _357  and  _358
REMARK  152  A    between atoms: _367  and  _369
REMARK  153  A    between atoms: _369  and  _370
REMARK  154  A    between atoms: _369  and  _372
REMARK  155  A    between atoms: _372  and  _373
REMARK  156  A    between atoms: _377  and  _378
REMARK  157  A    between atoms: _383  and  _385
REMARK  158  A    between atoms: _385  and  _386
REMARK  159  A    between atoms: _385  and  _388
REMARK  160  A    between atoms: _388  and  _389
REMARK  161  A    between atoms: _389  and  _390
REMARK  162  A    between atoms: _390  and  _391
REMARK  163  A    between atoms: _400  and  _402
REMARK  164  A    between atoms: _402  and  _403
REMARK  165  A    between atoms: _402  and  _405
REMARK  166  A    between atoms: _405  and  _406
REMARK  167  A    between atoms: _406  and  _407
REMARK  168  A    between atoms: _410  and  _412
REMARK  169  A    between atoms: _412  and  _413
REMARK  170  A    between atoms: _412  and  _415
REMARK  171  A    between atoms: _415  and  _416
REMARK  172  A    between atoms: _419  and  _421
REMARK  173  A    between atoms: _421  and  _422
REMARK  174  A    between atoms: _421  and  _424
REMARK  175  A    between atoms: _424  and  _425
REMARK  176  A    between atoms: _430  and  _432
REMARK  177  A    between atoms: _432  and  _433
REMARK  178  A    between atoms: _432  and  _435
REMARK  179  A    between atoms: _435  and  _436
REMARK  180  A    between atoms: _438  and  _440
REMARK  181  A    between atoms: _440  and  _441
REMARK  182  A    between atoms: _440  and  _443
REMARK  183  A    between atoms: _443  and  _444
REMARK  184  A    between atoms: _454  and  _456
REMARK  185  A    between atoms: _456  and  _457
REMARK  186  A    between atoms: _456  and  _459
REMARK  187  A    between atoms: _459  and  _460
REMARK  188  A    between atoms: _463  and  _465
REMARK  189  A    between atoms: _465  and  _466
REMARK  190  A    between atoms: _468  and  _470
REMARK  191  A    between atoms: _470  and  _471
REMARK  192  A    between atoms: _470  and  _473
REMARK  193  A    between atoms: _473  and  _474
REMARK  194  A    between atoms: _479  and  _481
REMARK  195  A    between atoms: _481  and  _482
REMARK  196  A    between atoms: _481  and  _484
REMARK  197  A    between atoms: _484  and  _485
REMARK  198  A    between atoms: _488  and  _490
REMARK  199  A    between atoms: _490  and  _491
REMARK  200  A    between atoms: _490  and  _493
REMARK  201  A    between atoms: _493  and  _494
REMARK  202  A    between atoms: _497  and  _499
REMARK  203  A    between atoms: _499  and  _500
REMARK  204  A    between atoms: _499  and  _502
REMARK  205  A    between atoms: _502  and  _503
REMARK  206  A    between atoms: _503  and  _504
REMARK  207  A    between atoms: _506  and  _508
REMARK  208  A    between atoms: _508  and  _509
REMARK  209  A    between atoms: _508  and  _511
REMARK  210  A    between atoms: _511  and  _512
REMARK  211  A    between atoms: _517  and  _518
REMARK  212  A    between atoms: _520  and  _522
REMARK  213  A    between atoms: _522  and  _523
REMARK  214  A    between atoms: _527  and  _528
REMARK  215  A    between atoms: _533  and  _535
REMARK  216  A    between atoms: _535  and  _536
REMARK  217  A    between atoms: _535  and  _538
REMARK  218  A    between atoms: _538  and  _539
REMARK  219  A    between atoms: _542  and  _544
REMARK  220  A    between atoms: _544  and  _545
REMARK  221  A    between atoms: _544  and  _547
REMARK  222  A    between atoms: _547  and  _548
REMARK  223  A    between atoms: _558  and  _560
REMARK  224  A    between atoms: _560  and  _561
REMARK  225  A    between atoms: _560  and  _563
REMARK  226  A    between atoms: _563  and  _564
REMARK  227  A    between atoms: _567  and  _569
REMARK  228  A    between atoms: _569  and  _570
REMARK  229  A    between atoms: _569  and  _572
REMARK  230  A    between atoms: _574  and  _576
REMARK  231  A    between atoms: _576  and  _577
REMARK  232  A    between atoms: _576  and  _579
REMARK  233  A    between atoms: _579  and  _580
REMARK  234  A    between atoms: _580  and  _581
REMARK  235  A    between atoms: _586  and  _588
REMARK  236  A    between atoms: _588  and  _589
REMARK  237  A    between atoms: _588  and  _591
REMARK  238  A    between atoms: _591  and  _592
REMARK  239  A    between atoms: _595  and  _597
REMARK  240  A    between atoms: _597  and  _598
REMARK  241  A    between atoms: _597  and  _600
REMARK  242  A    between atoms: _600  and  _601
REMARK  243  A    between atoms: _606  and  _607
REMARK  244  A    between atoms: _609  and  _611
REMARK  245  A    between atoms: _611  and  _612
REMARK  246  A    between atoms: _614  and  _616
REMARK  247  A    between atoms: _616  and  _617
REMARK  248  A    between atoms: _620  and  _622
REMARK  249  A    between atoms: _622  and  _623
REMARK  250  A    between atoms: _622  and  _625
REMARK  251  A    between atoms: _627  and  _629
REMARK  252  A    between atoms: _629  and  _630
REMARK  253  A    between atoms: _629  and  _632
REMARK  254  A    between atoms: _632  and  _633
REMARK  255  A    between atoms: _638  and  _639
REMARK  256  A    between atoms: _641  and  _643
REMARK  257  A    between atoms: _643  and  _644
REMARK  258  A    between atoms: _643  and  _646
REMARK  259  A    between atoms: _646  and  _647
REMARK  260  A    between atoms: _650  and  _652
REMARK  261  A    between atoms: _652  and  _653
REMARK  262  A    between atoms: _652  and  _655
REMARK  263  A    between atoms: _655  and  _656
REMARK  264  A    between atoms: _661  and  _663
REMARK  265  A    between atoms: _663  and  _664
REMARK  266  A    between atoms: _663  and  _666
REMARK  267  A    between atoms: _666  and  _667
REMARK  268  A    between atoms: _673  and  _675
REMARK  269  A    between atoms: _675  and  _676
REMARK  270  A    between atoms: _679  and  _681
REMARK  271  A    between atoms: _681  and  _682
REMARK  272  A    between atoms: _684  and  _686
REMARK  273  A    between atoms: _686  and  _687
REMARK  274  A    between atoms: _686  and  _689
REMARK  275  A    between atoms: _689  and  _690
REMARK  276  A    between atoms: _695  and  _696
REMARK  277  A    between atoms: _698  and  _700
REMARK  278  A    between atoms: _700  and  _701
REMARK  279  A    between atoms: _700  and  _703
REMARK  280  A    between atoms: _703  and  _704
REMARK  281  A    between atoms: _706  and  _708
REMARK  282  A    between atoms: _708  and  _709
REMARK  283  A    between atoms: _711  and  _713
REMARK  284  A    between atoms: _713  and  _714
REMARK                            x       y       z     vdW  Elec       q    Type
REMARK                         _______ _______ _______ _____ _____    ______ ____
ROOT
ATOM      1  C   PHE A   1      39.052   9.249  48.786  0.00  0.00    +0.239 C 
ATOM      2  O   PHE A   1      39.333  10.083  49.636  0.00  0.00    -0.274 OA
ATOM      3  N   ASP A   2      38.205   8.250  49.010  0.00  0.00    -0.298 N 
ATOM      4  H   ASP A   2      38.047   7.549  48.258  0.00  0.00    +0.150 HD
ENDROOT
BRANCH   1   5
ATOM      5  CA  PHE A   1      39.686   9.337  47.394  0.00  0.00    +0.149 C 
BRANCH   5   6
ATOM      6  N   PHE A   1      40.175   8.082  46.867  0.00  0.00    -0.238 NA
ATOM      7  H   PHE A   1      39.854   7.771  45.928  0.00  0.00    +0.142 HD
ENDBRANCH   5   6
BRANCH   5   8
ATOM      8  CB  PHE A   1      38.706   9.966  46.409  0.00  0.00    +0.053 C 
BRANCH   8   9
ATOM      9  CG  PHE A   1      38.277  11.351  46.789  0.00  0.00    -0.020 A 
ATOM     10  CD2 PHE A   1      37.209  11.556  47.689  0.00  0.00    -0.004 A 
ATOM     11  CE2 PHE A   1      36.795  12.880  48.033  0.00  0.00    -0.000 A 
ATOM     12  CZ  PHE A   1      37.448  13.985  47.465  0.00  0.00    -0.000 A 
ATOM     13  CE1 PHE A   1      38.512  13.771  46.552  0.00  0.00    -0.000 A 
ATOM     14  CD1 PHE A   1      38.914  12.468  46.228  0.00  0.00    -0.004 A 
ENDBRANCH   8   9
ENDBRANCH   5   8
ENDBRANCH   1   5
BRANCH   3  15
ATOM     15  CA  ASP A   2      37.478   8.099  50.290  0.00  0.00    +0.148 C 
BRANCH  15  16
ATOM     16  C   ASP A   2      38.430   8.006  51.485  0.00  0.00    +0.227 C 
ATOM     17  O   ASP A   2      38.185   8.567  52.560  0.00  0.00    -0.286 OA
ENDBRANCH  15  16
BRANCH  15  18
ATOM     18  CB  ASP A   2      36.585   6.862  50.241  0.00  0.00    +0.142 C 
BRANCH  18  19
ATOM     19  CG  ASP A   2      35.299   7.095  49.459  0.00  0.00    +0.367 C 
ATOM     20  OD2 ASP A   2      34.497   6.138  49.358  0.00  0.00    -0.246 OA
ATOM     21  OD1 ASP A   2      35.057   8.226  48.970  0.00  0.00    -0.246 OA
ENDBRANCH  18  19
ENDBRANCH  15  18
ENDBRANCH   3  15
TORSDOF 8
REMARK  Name = ../refined-set-2016/3gnw/3gnw_pocket.pdb
REMARK  284 active torsions:
REMARK  status: ('A' for Active; 'I' for Inactive)
REMARK    1  A    between atoms: _1  and  _3
REMARK    2  A    between atoms: _3  and  _4
REMARK    3  A    between atoms: _3  and  _6
REMARK    4  A    between atoms: _6  and  _7
REMARK    5  A    between atoms: _7  and  _8
REMARK    6  A    between atoms: _8  and  _9
REMARK    7  A    between atoms: _9  and  _10
REMARK    8  A    between atoms: _14  and  _16
REMARK    9  A    between atoms: _16  and  _17
REMARK   10  A    between atoms: _16  and  _19
REMARK   11  A    between atoms: _19  and  _20
REMARK   12  A    between atoms: _20  and  _21
REMARK   13  A    between atoms: _24  and  _26
REMARK   14  A    between atoms: _26  and  _27
REMARK   15  A    between atoms: _26  and  _29
REMARK   16  A    between atoms: _29  and  _30
REMARK   17  A    between atoms: _36  and  _38
REMARK   18  A    between atoms: _38  and  _39
REMARK   19  A    between atoms: _38  and  _41
REMARK   20  A    between atoms: _41  and  _42
REMARK   21  A    between atoms: _42  and  _43
REMARK   22  A    between atoms: _43  and  _44
REMARK   23  A    between atoms: _53  and  _55
REMARK   24  A    between atoms: _55  and  _56
REMARK   25  A    between atoms: _55  and  _58
REMARK   26  A    between atoms: _58  and  _59
REMARK   27  A    between atoms: _62  and  _64
REMARK   28  A    between atoms: _64  and  _65
REMARK   29  A    between atoms: _67  and  _69
REMARK   30  A    between atoms: _69  and  _70
REMARK   31  A    between atoms: _69  and  _72
REMARK   32  A    between atoms: _72  and  _73
REMARK   33  A    between atoms: _79  and  _81
REMARK   34  A    between atoms: _81  and  _82
REMARK   35  A    between atoms: _81  and  _84
REMARK   36  A    between atoms: _84  and  _85
REMARK   37  A    between atoms: _90  and  _91
REMARK   38  A    between atoms: _93  and  _95
REMARK   39  A    between atoms: _95  and  _96
REMARK   40  A    between atoms: _95  and  _98
REMARK   41  A    between atoms: _98  and  _99
REMARK   42  A    between atoms: _102  and  _103
REMARK   43  A    between atoms: _108  and  _110
REMARK   44  A    between atoms: _110  and  _111
REMARK   45  A    between atoms: _110  and  _113
REMARK   46  A    between atoms: _113  and  _114
REMARK   47  A    between atoms: _114  and  _115
REMARK   48  A    between atoms: _115  and  _116
REMARK   49  A    between atoms: _116  and  _117
REMARK   50  A    between atoms: _121  and  _123
REMARK   51  A    between atoms: _123  and  _124
REMARK   52  A    between atoms: _123  and  _126
REMARK   53  A    between atoms: _126  and  _127
REMARK   54  A    between atoms: _127  and  _128
REMARK   55  A    between atoms: _133  and  _135
REMARK   56  A    between atoms: _135  and  _136
REMARK   57  A    between atoms: _135  and  _138
REMARK   58  A    between atoms: _138  and  _139
REMARK   59  A    between atoms: _139  and  _140
REMARK   60  A    between atoms: _140  and  _141
REMARK   61  A    between atoms: _150  and  _152
REMARK   62  A    between atoms: _152  and  _153
REMARK   63  A    between atoms: _152  and  _155
REMARK   64  A    between atoms: _158  and  _160
REMARK   65  A    between atoms: _160  and  _161
REMARK   66  A    between atoms: _160  and  _163
REMARK   67  A    between atoms: _163  and  _164
REMARK   68  A    between atoms: _167  and  _169
REMARK   69  A    between atoms: _169  and  _170
REMARK   70  A    between atoms: _169  and  _172
REMARK   71  A    between atoms: _172  and  _173
REMARK   72  A    between atoms: _179  and  _181
REMARK   73  A    between atoms: _181  and  _182
REMARK   74  A    between atoms: _181  and  _184
REMARK   75  A    between atoms: _184  and  _185
REMARK   76  A    between atoms: _188  and  _190
REMARK   77  A    between atoms: _190  and  _191
REMARK   78  A    between atoms: _190  and  _193
REMARK   79  A    between atoms: _193  and  _194
REMARK   80  A    between atoms: _196  and  _198
REMARK   81  A    between atoms: _198  and  _199
REMARK   82  A    between atoms: _198  and  _201
REMARK   83  A    between atoms: _201  and  _202
REMARK   84  A    between atoms: _205  and  _207
REMARK   85  A    between atoms: _207  and  _208
REMARK   86  A    between atoms: _207  and  _210
REMARK   87  A    between atoms: _210  and  _211
REMARK   88  A    between atoms: _213  and  _215
REMARK   89  A    between atoms: _215  and  _216
REMARK   90  A    between atoms: _215  and  _218
REMARK   91  A    between atoms: _218  and  _219
REMARK   92  A    between atoms: _224  and  _226
REMARK   93  A    between atoms: _226  and  _227
REMARK   94  A    between atoms: _226  and  _229
REMARK   95  A    between atoms: _229  and  _230
REMARK   96  A    between atoms: _233  and  _235
REMARK   97  A    between atoms: _235  and  _236
REMARK   98  A    between atoms: _235  and  _238
REMARK   99  A    between atoms: _238  and  _239
REMARK  100  A    between atoms: _244  and  _246
REMARK  101  A    between atoms: _246  and  _247
REMARK  102  A    between atoms: _249  and  _251
REMARK  103  A    between atoms: _251  and  _252
REMARK  104  A    between atoms: _251  and  _254
REMARK  105  A    between atoms: _254  and  _255
REMARK  106  A    between atoms: _258  and  _260
REMARK  107  A    between atoms: _260  and  _261
REMARK  108  A    between atoms: _260  and  _263
REMARK  109  A    between atoms: _263  and  _264
REMARK  110  A    between atoms: _267  and  _269
REMARK  111  A    between atoms: _269  and  _270
REMARK  112  A    between atoms: _269  and  _272
REMARK  113  A    between atoms: _272  and  _273
REMARK  114  A    between atoms: _276  and  _278
REMARK  115  A    between atoms: _278  and  _279
REMARK  116  A    between atoms: _278  and  _281
REMARK  117  A    between atoms: _281  and  _282
REMARK  118  A    between atoms: _284  and  _286
REMARK  119  A    between atoms: _286  and  _287
REMARK  120  A    between atoms: _286  and  _289
REMARK  121  A    between atoms: _291  and  _293
REMARK  122  A    between atoms: _293  and  _294
REMARK  123  A    between atoms: _293  and  _296
REMARK  124  A    between atoms: _296  and  _297
REMARK  125  A    between atoms: _299  and  _301
REMARK  126  A    between atoms: _301  and  _302
REMARK  127  A    between atoms: _301  and  _304
REMARK  128  A    between atoms: _304  and  _305
REMARK  129  A    between atoms: _307  and  _309
REMARK  130  A    between atoms: _309  and  _310
REMARK  131  A    between atoms: _309  and  _312
REMARK  132  A    between atoms: _312  and  _313
REMARK  133  A    between atoms: _318  and  _320
REMARK  134  A    between atoms: _320  and  _321
REMARK  135  A    between atoms: _320  and  _323
REMARK  136  A    between atoms: _323  and  _324
REMARK  137  A    between atoms: _329  and  _330
REMARK  138  A    between atoms: _332  and  _334
REMARK  139  A    between atoms: _334  and  _335
REMARK  140  A    between atoms: _334  and  _337
REMARK  141  A    between atoms: _337  and  _338
REMARK  142  A    between atoms: _341  and  _343
REMARK  143  A    between atoms: _343  and  _344
REMARK  144  A    between atoms: _343  and  _346
REMARK  145  A    between atoms: _346  and  _347
REMARK  146  A    between atoms: _350  and  _352
REMARK  147  A    between atoms: _352  and  _353
REMARK  148  A    between atoms: _352  and  _355
REMARK  149  A    between atoms: _355  and  _356
REMARK  150  A    between atoms: _356  and  _357
REMARK  151  A    between atoms: _357  and  _358
REMARK  152  A    between atoms: _367  and  _369
REMARK  153  A    between atoms: _369  and  _370
REMARK  154  A    between atoms: _369  and  _372
REMARK  155  A    between atoms: _372  and  _373
REMARK  156  A    between atoms: _377  and  _378
REMARK  157  A    between atoms: _383  and  _385
REMARK  158  A    between atoms: _385  and  _386
REMARK  159  A    between atoms: _385  and  _388
REMARK  160  A    between atoms: _388  and  _389
REMARK  161  A    between atoms: _389  and  _390
REMARK  162  A    between atoms: _390  and  _391
REMARK  163  A    between atoms: _400  and  _402
REMARK  164  A    between atoms: _402  and  _403
REMARK  165  A    between atoms: _402  and  _405
REMARK  166  A    between atoms: _405  and  _406
REMARK  167  A    between atoms: _406  and  _407
REMARK  168  A    between atoms: _410  and  _412
REMARK  169  A    between atoms: _412  and  _413
REMARK  170  A    between atoms: _412  and  _415
REMARK  171  A    between atoms: _415  and  _416
REMARK  172  A    between atoms: _419  and  _421
REMARK  173  A    between atoms: _421  and  _422
REMARK  174  A    between atoms: _421  and  _424
REMARK  175  A    between atoms: _424  and  _425
REMARK  176  A    between atoms: _430  and  _432
REMARK  177  A    between atoms: _432  and  _433
REMARK  178  A    between atoms: _432  and  _435
REMARK  179  A    between atoms: _435  and  _436
REMARK  180  A    between atoms: _438  and  _440
REMARK  181  A    between atoms: _440  and  _441
REMARK  182  A    between atoms: _440  and  _443
REMARK  183  A    between atoms: _443  and  _444
REMARK  184  A    between atoms: _454  and  _456
REMARK  185  A    between atoms: _456  and  _457
REMARK  186  A    between atoms: _456  and  _459
REMARK  187  A    between atoms: _459  and  _460
REMARK  188  A    between atoms: _463  and  _465
REMARK  189  A    between atoms: _465  and  _466
REMARK  190  A    between atoms: _468  and  _470
REMARK  191  A    between atoms: _470  and  _471
REMARK  192  A    between atoms: _470  and  _473
REMARK  193  A    between atoms: _473  and  _474
REMARK  194  A    between atoms: _479  and  _481
REMARK  195  A    between atoms: _481  and  _482
REMARK  196  A    between atoms: _481  and  _484
REMARK  197  A    between atoms: _484  and  _485
REMARK  198  A    between atoms: _488  and  _490
REMARK  199  A    between atoms: _490  and  _491
REMARK  200  A    between atoms: _490  and  _493
REMARK  201  A    between atoms: _493  and  _494
REMARK  202  A    between atoms: _497  and  _499
REMARK  203  A    between atoms: _499  and  _500
REMARK  204  A    between atoms: _499  and  _502
REMARK  205  A    between atoms: _502  and  _503
REMARK  206  A    between atoms: _503  and  _504
REMARK  207  A    between atoms: _506  and  _508
REMARK  208  A    between atoms: _508  and  _509
REMARK  209  A    between atoms: _508  and  _511
REMARK  210  A    between atoms: _511  and  _512
REMARK  211  A    between atoms: _517  and  _518
REMARK  212  A    between atoms: _520  and  _522
REMARK  213  A    between atoms: _522  and  _523
REMARK  214  A    between atoms: _527  and  _528
REMARK  215  A    between atoms: _533  and  _535
REMARK  216  A    between atoms: _535  and  _536
REMARK  217  A    between atoms: _535  and  _538
REMARK  218  A    between atoms: _538  and  _539
REMARK  219  A    between atoms: _542  and  _544
REMARK  220  A    between atoms: _544  and  _545
REMARK  221  A    between atoms: _544  and  _547
REMARK  222  A    between atoms: _547  and  _548
REMARK  223  A    between atoms: _558  and  _560
REMARK  224  A    between atoms: _560  and  _561
REMARK  225  A    between atoms: _560  and  _563
REMARK  226  A    between atoms: _563  and  _564
REMARK  227  A    between atoms: _567  and  _569
REMARK  228  A    between atoms: _569  and  _570
REMARK  229  A    between atoms: _569  and  _572
REMARK  230  A    between atoms: _574  and  _576
REMARK  231  A    between atoms: _576  and  _577
REMARK  232  A    between atoms: _576  and  _579
REMARK  233  A    between atoms: _579  and  _580
REMARK  234  A    between atoms: _580  and  _581
REMARK  235  A    between atoms: _586  and  _588
REMARK  236  A    between atoms: _588  and  _589
REMARK  237  A    between atoms: _588  and  _591
REMARK  238  A    between atoms: _591  and  _592
REMARK  239  A    between atoms: _595  and  _597
REMARK  240  A    between atoms: _597  and  _598
REMARK  241  A    between atoms: _597  and  _600
REMARK  242  A    between atoms: _600  and  _601
REMARK  243  A    between atoms: _606  and  _607
REMARK  244  A    between atoms: _609  and  _611
REMARK  245  A    between atoms: _611  and  _612
REMARK  246  A    between atoms: _614  and  _616
REMARK  247  A    between atoms: _616  and  _617
REMARK  248  A    between atoms: _620  and  _622
REMARK  249  A    between atoms: _622  and  _623
REMARK  250  A    between atoms: _622  and  _625
REMARK  251  A    between atoms: _627  and  _629
REMARK  252  A    between atoms: _629  and  _630
REMARK  253  A    between atoms: _629  and  _632
REMARK  254  A    between atoms: _632  and  _633
REMARK  255  A    between atoms: _638  and  _639
REMARK  256  A    between atoms: _641  and  _643
REMARK  257  A    between atoms: _643  and  _644
REMARK  258  A    between atoms: _643  and  _646
REMARK  259  A    between atoms: _646  and  _647
REMARK  260  A    between atoms: _650  and  _652
REMARK  261  A    between atoms: _652  and  _653
REMARK  262  A    between atoms: _652  and  _655
REMARK  263  A    between atoms: _655  and  _656
REMARK  264  A    between atoms: _661  and  _663
REMARK  265  A    between atoms: _663  and  _664
REMARK  266  A    between atoms: _663  and  _666
REMARK  267  A    between atoms: _666  and  _667
REMARK  268  A    between atoms: _673  and  _675
REMARK  269  A    between atoms: _675  and  _676
REMARK  270  A    between atoms: _679  and  _681
REMARK  271  A    between atoms: _681  and  _682
REMARK  272  A    between atoms: _684  and  _686
REMARK  273  A    between atoms: _686  and  _687
REMARK  274  A    between atoms: _686  and  _689
REMARK  275  A    between atoms: _689  and  _690
REMARK  276  A    between atoms: _695  and  _696
REMARK  277  A    between atoms: _698  and  _700
REMARK  278  A    between atoms: _700  and  _701
REMARK  279  A    between atoms: _700  and  _703
REMARK  280  A    between atoms: _703  and  _704
REMARK  281  A    between atoms: _706  and  _708
REMARK  282  A    between atoms: _708  and  _709
REMARK  283  A    between atoms: _711  and  _713
REMARK  284  A    between atoms: _713  and  _714
REMARK                            x       y       z     vdW  Elec       q    Type
REMARK                         _______ _______ _______ _____ _____    ______ ____
ROOT
ATOM      1  CA  SER A   1      31.326   4.744  50.897  0.00  0.00    +0.163 C 
ENDROOT
BRANCH   1   2
ATOM      2  N   SER A   1      31.919   4.739  52.241  0.00  0.00    -0.237 NA
ATOM      3  H   SER A   1      32.459   3.911  52.564  0.00  0.00    +0.142 HD
ENDBRANCH   1   2
BRANCH   1   4
ATOM      4  CB  SER A   1      29.799   4.755  50.892  0.00  0.00    +0.227 C 
ATOM      5  OG  SER A   1      29.167   5.355  50.006  0.00  0.00    -0.287 OA
ENDBRANCH   1   4
BRANCH   1   6
ATOM      6  C   SER A   1      31.787   3.527  50.132  0.00  0.00    +0.162 C 
BRANCH   6   7
ATOM      7  O   SER A   1      31.365   2.336  50.782  0.00  0.00    -0.380 OA
ATOM      8  H   SER A   1      31.749   2.306  51.694  0.00  0.00    +0.211 HD
ENDBRANCH   6   7
ENDBRANCH   1   6
TORSDOF 4
REMARK  Name = ../refined-set-2016/3gnw/3gnw_pocket.pdb
REMARK  284 active torsions:
REMARK  status: ('A' for Active; 'I' for Inactive)
REMARK    1  A    between atoms: _1  and  _3
REMARK    2  A    between atoms: _3  and  _4
REMARK    3  A    between atoms: _3  and  _6
REMARK    4  A    between atoms: _6  and  _7
REMARK    5  A    between atoms: _7  and  _8
REMARK    6  A    between atoms: _8  and  _9
REMARK    7  A    between atoms: _9  and  _10
REMARK    8  A    between atoms: _14  and  _16
REMARK    9  A    between atoms: _16  and  _17
REMARK   10  A    between atoms: _16  and  _19
REMARK   11  A    between atoms: _19  and  _20
REMARK   12  A    between atoms: _20  and  _21
REMARK   13  A    between atoms: _24  and  _26
REMARK   14  A    between atoms: _26  and  _27
REMARK   15  A    between atoms: _26  and  _29
REMARK   16  A    between atoms: _29  and  _30
REMARK   17  A    between atoms: _36  and  _38
REMARK   18  A    between atoms: _38  and  _39
REMARK   19  A    between atoms: _38  and  _41
REMARK   20  A    between atoms: _41  and  _42
REMARK   21  A    between atoms: _42  and  _43
REMARK   22  A    between atoms: _43  and  _44
REMARK   23  A    between atoms: _53  and  _55
REMARK   24  A    between atoms: _55  and  _56
REMARK   25  A    between atoms: _55  and  _58
REMARK   26  A    between atoms: _58  and  _59
REMARK   27  A    between atoms: _62  and  _64
REMARK   28  A    between atoms: _64  and  _65
REMARK   29  A    between atoms: _67  and  _69
REMARK   30  A    between atoms: _69  and  _70
REMARK   31  A    between atoms: _69  and  _72
REMARK   32  A    between atoms: _72  and  _73
REMARK   33  A    between atoms: _79  and  _81
REMARK   34  A    between atoms: _81  and  _82
REMARK   35  A    between atoms: _81  and  _84
REMARK   36  A    between atoms: _84  and  _85
REMARK   37  A    between atoms: _90  and  _91
REMARK   38  A    between atoms: _93  and  _95
REMARK   39  A    between atoms: _95  and  _96
REMARK   40  A    between atoms: _95  and  _98
REMARK   41  A    between atoms: _98  and  _99
REMARK   42  A    between atoms: _102  and  _103
REMARK   43  A    between atoms: _108  and  _110
REMARK   44  A    between atoms: _110  and  _111
REMARK   45  A    between atoms: _110  and  _113
REMARK   46  A    between atoms: _113  and  _114
REMARK   47  A    between atoms: _114  and  _115
REMARK   48  A    between atoms: _115  and  _116
REMARK   49  A    between atoms: _116  and  _117
REMARK   50  A    between atoms: _121  and  _123
REMARK   51  A    between atoms: _123  and  _124
REMARK   52  A    between atoms: _123  and  _126
REMARK   53  A    between atoms: _126  and  _127
REMARK   54  A    between atoms: _127  and  _128
REMARK   55  A    between atoms: _133  and  _135
REMARK   56  A    between atoms: _135  and  _136
REMARK   57  A    between atoms: _135  and  _138
REMARK   58  A    between atoms: _138  and  _139
REMARK   59  A    between atoms: _139  and  _140
REMARK   60  A    between atoms: _140  and  _141
REMARK   61  A    between atoms: _150  and  _152
REMARK   62  A    between atoms: _152  and  _153
REMARK   63  A    between atoms: _152  and  _155
REMARK   64  A    between atoms: _158  and  _160
REMARK   65  A    between atoms: _160  and  _161
REMARK   66  A    between atoms: _160  and  _163
REMARK   67  A    between atoms: _163  and  _164
REMARK   68  A    between atoms: _167  and  _169
REMARK   69  A    between atoms: _169  and  _170
REMARK   70  A    between atoms: _169  and  _172
REMARK   71  A    between atoms: _172  and  _173
REMARK   72  A    between atoms: _179  and  _181
REMARK   73  A    between atoms: _181  and  _182
REMARK   74  A    between atoms: _181  and  _184
REMARK   75  A    between atoms: _184  and  _185
REMARK   76  A    between atoms: _188  and  _190
REMARK   77  A    between atoms: _190  and  _191
REMARK   78  A    between atoms: _190  and  _193
REMARK   79  A    between atoms: _193  and  _194
REMARK   80  A    between atoms: _196  and  _198
REMARK   81  A    between atoms: _198  and  _199
REMARK   82  A    between atoms: _198  and  _201
REMARK   83  A    between atoms: _201  and  _202
REMARK   84  A    between atoms: _205  and  _207
REMARK   85  A    between atoms: _207  and  _208
REMARK   86  A    between atoms: _207  and  _210
REMARK   87  A    between atoms: _210  and  _211
REMARK   88  A    between atoms: _213  and  _215
REMARK   89  A    between atoms: _215  and  _216
REMARK   90  A    between atoms: _215  and  _218
REMARK   91  A    between atoms: _218  and  _219
REMARK   92  A    between atoms: _224  and  _226
REMARK   93  A    between atoms: _226  and  _227
REMARK   94  A    between atoms: _226  and  _229
REMARK   95  A    between atoms: _229  and  _230
REMARK   96  A    between atoms: _233  and  _235
REMARK   97  A    between atoms: _235  and  _236
REMARK   98  A    between atoms: _235  and  _238
REMARK   99  A    between atoms: _238  and  _239
REMARK  100  A    between atoms: _244  and  _246
REMARK  101  A    between atoms: _246  and  _247
REMARK  102  A    between atoms: _249  and  _251
REMARK  103  A    between atoms: _251  and  _252
REMARK  104  A    between atoms: _251  and  _254
REMARK  105  A    between atoms: _254  and  _255
REMARK  106  A    between atoms: _258  and  _260
REMARK  107  A    between atoms: _260  and  _261
REMARK  108  A    between atoms: _260  and  _263
REMARK  109  A    between atoms: _263  and  _264
REMARK  110  A    between atoms: _267  and  _269
REMARK  111  A    between atoms: _269  and  _270
REMARK  112  A    between atoms: _269  and  _272
REMARK  113  A    between atoms: _272  and  _273
REMARK  114  A    between atoms: _276  and  _278
REMARK  115  A    between atoms: _278  and  _279
REMARK  116  A    between atoms: _278  and  _281
REMARK  117  A    between atoms: _281  and  _282
REMARK  118  A    between atoms: _284  and  _286
REMARK  119  A    between atoms: _286  and  _287
REMARK  120  A    between atoms: _286  and  _289
REMARK  121  A    between atoms: _291  and  _293
REMARK  122  A    between atoms: _293  and  _294
REMARK  123  A    between atoms: _293  and  _296
REMARK  124  A    between atoms: _296  and  _297
REMARK  125  A    between atoms: _299  and  _301
REMARK  126  A    between atoms: _301  and  _302
REMARK  127  A    between atoms: _301  and  _304
REMARK  128  A    between atoms: _304  and  _305
REMARK  129  A    between atoms: _307  and  _309
REMARK  130  A    between atoms: _309  and  _310
REMARK  131  A    between atoms: _309  and  _312
REMARK  132  A    between atoms: _312  and  _313
REMARK  133  A    between atoms: _318  and  _320
REMARK  134  A    between atoms: _320  and  _321
REMARK  135  A    between atoms: _320  and  _323
REMARK  136  A    between atoms: _323  and  _324
REMARK  137  A    between atoms: _329  and  _330
REMARK  138  A    between atoms: _332  and  _334
REMARK  139  A    between atoms: _334  and  _335
REMARK  140  A    between atoms: _334  and  _337
REMARK  141  A    between atoms: _337  and  _338
REMARK  142  A    between atoms: _341  and  _343
REMARK  143  A    between atoms: _343  and  _344
REMARK  144  A    between atoms: _343  and  _346
REMARK  145  A    between atoms: _346  and  _347
REMARK  146  A    between atoms: _350  and  _352
REMARK  147  A    between atoms: _352  and  _353
REMARK  148  A    between atoms: _352  and  _355
REMARK  149  A    between atoms: _355  and  _356
REMARK  150  A    between atoms: _356  and  _357
REMARK  151  A    between atoms: _357  and  _358
REMARK  152  A    between atoms: _367  and  _369
REMARK  153  A    between atoms: _369  and  _370
REMARK  154  A    between atoms: _369  and  _372
REMARK  155  A    between atoms: _372  and  _373
REMARK  156  A    between atoms: _377  and  _378
REMARK  157  A    between atoms: _383  and  _385
REMARK  158  A    between atoms: _385  and  _386
REMARK  159  A    between atoms: _385  and  _388
REMARK  160  A    between atoms: _388  and  _389
REMARK  161  A    between atoms: _389  and  _390
REMARK  162  A    between atoms: _390  and  _391
REMARK  163  A    between atoms: _400  and  _402
REMARK  164  A    between atoms: _402  and  _403
REMARK  165  A    between atoms: _402  and  _405
REMARK  166  A    between atoms: _405  and  _406
REMARK  167  A    between atoms: _406  and  _407
REMARK  168  A    between atoms: _410  and  _412
REMARK  169  A    between atoms: _412  and  _413
REMARK  170  A    between atoms: _412  and  _415
REMARK  171  A    between atoms: _415  and  _416
REMARK  172  A    between atoms: _419  and  _421
REMARK  173  A    between atoms: _421  and  _422
REMARK  174  A    between atoms: _421  and  _424
REMARK  175  A    between atoms: _424  and  _425
REMARK  176  A    between atoms: _430  and  _432
REMARK  177  A    between atoms: _432  and  _433
REMARK  178  A    between atoms: _432  and  _435
REMARK  179  A    between atoms: _435  and  _436
REMARK  180  A    between atoms: _438  and  _440
REMARK  181  A    between atoms: _440  and  _441
REMARK  182  A    between atoms: _440  and  _443
REMARK  183  A    between atoms: _443  and  _444
REMARK  184  A    between atoms: _454  and  _456
REMARK  185  A    between atoms: _456  and  _457
REMARK  186  A    between atoms: _456  and  _459
REMARK  187  A    between atoms: _459  and  _460
REMARK  188  A    between atoms: _463  and  _465
REMARK  189  A    between atoms: _465  and  _466
REMARK  190  A    between atoms: _468  and  _470
REMARK  191  A    between atoms: _470  and  _471
REMARK  192  A    between atoms: _470  and  _473
REMARK  193  A    between atoms: _473  and  _474
REMARK  194  A    between atoms: _479  and  _481
REMARK  195  A    between atoms: _481  and  _482
REMARK  196  A    between atoms: _481  and  _484
REMARK  197  A    between atoms: _484  and  _485
REMARK  198  A    between atoms: _488  and  _490
REMARK  199  A    between atoms: _490  and  _491
REMARK  200  A    between atoms: _490  and  _493
REMARK  201  A    between atoms: _493  and  _494
REMARK  202  A    between atoms: _497  and  _499
REMARK  203  A    between atoms: _499  and  _500
REMARK  204  A    between atoms: _499  and  _502
REMARK  205  A    between atoms: _502  and  _503
REMARK  206  A    between atoms: _503  and  _504
REMARK  207  A    between atoms: _506  and  _508
REMARK  208  A    between atoms: _508  and  _509
REMARK  209  A    between atoms: _508  and  _511
REMARK  210  A    between atoms: _511  and  _512
REMARK  211  A    between atoms: _517  and  _518
REMARK  212  A    between atoms: _520  and  _522
REMARK  213  A    between atoms: _522  and  _523
REMARK  214  A    between atoms: _527  and  _528
REMARK  215  A    between atoms: _533  and  _535
REMARK  216  A    between atoms: _535  and  _536
REMARK  217  A    between atoms: _535  and  _538
REMARK  218  A    between atoms: _538  and  _539
REMARK  219  A    between atoms: _542  and  _544
REMARK  220  A    between atoms: _544  and  _545
REMARK  221  A    between atoms: _544  and  _547
REMARK  222  A    between atoms: _547  and  _548
REMARK  223  A    between atoms: _558  and  _560
REMARK  224  A    between atoms: _560  and  _561
REMARK  225  A    between atoms: _560  and  _563
REMARK  226  A    between atoms: _563  and  _564
REMARK  227  A    between atoms: _567  and  _569
REMARK  228  A    between atoms: _569  and  _570
REMARK  229  A    between atoms: _569  and  _572
REMARK  230  A    between atoms: _574  and  _576
REMARK  231  A    between atoms: _576  and  _577
REMARK  232  A    between atoms: _576  and  _579
REMARK  233  A    between atoms: _579  and  _580
REMARK  234  A    between atoms: _580  and  _581
REMARK  235  A    between atoms: _586  and  _588
REMARK  236  A    between atoms: _588  and  _589
REMARK  237  A    between atoms: _588  and  _591
REMARK  238  A    between atoms: _591  and  _592
REMARK  239  A    between atoms: _595  and  _597
REMARK  240  A    between atoms: _597  and  _598
REMARK  241  A    between atoms: _597  and  _600
REMARK  242  A    between atoms: _600  and  _601
REMARK  243  A    between atoms: _606  and  _607
REMARK  244  A    between atoms: _609  and  _611
REMARK  245  A    between atoms: _611  and  _612
REMARK  246  A    between atoms: _614  and  _616
REMARK  247  A    between atoms: _616  and  _617
REMARK  248  A    between atoms: _620  and  _622
REMARK  249  A    between atoms: _622  and  _623
REMARK  250  A    between atoms: _622  and  _625
REMARK  251  A    between atoms: _627  and  _629
REMARK  252  A    between atoms: _629  and  _630
REMARK  253  A    between atoms: _629  and  _632
REMARK  254  A    between atoms: _632  and  _633
REMARK  255  A    between atoms: _638  and  _639
REMARK  256  A    between atoms: _641  and  _643
REMARK  257  A    between atoms: _643  and  _644
REMARK  258  A    between atoms: _643  and  _646
REMARK  259  A    between atoms: _646  and  _647
REMARK  260  A    between atoms: _650  and  _652
REMARK  261  A    between atoms: _652  and  _653
REMARK  262  A    between atoms: _652  and  _655
REMARK  263  A    between atoms: _655  and  _656
REMARK  264  A    between atoms: _661  and  _663
REMARK  265  A    between atoms: _663  and  _664
REMARK  266  A    between atoms: _663  and  _666
REMARK  267  A    between atoms: _666  and  _667
REMARK  268  A    between atoms: _673  and  _675
REMARK  269  A    between atoms: _675  and  _676
REMARK  270  A    between atoms: _679  and  _681
REMARK  271  A    between atoms: _681  and  _682
REMARK  272  A    between atoms: _684  and  _686
REMARK  273  A    between atoms: _686  and  _687
REMARK  274  A    between atoms: _686  and  _689
REMARK  275  A    between atoms: _689  and  _690
REMARK  276  A    between atoms: _695  and  _696
REMARK  277  A    between atoms: _698  and  _700
REMARK  278  A    between atoms: _700  and  _701
REMARK  279  A    between atoms: _700  and  _703
REMARK  280  A    between atoms: _703  and  _704
REMARK  281  A    between atoms: _706  and  _708
REMARK  282  A    between atoms: _708  and  _709
REMARK  283  A    between atoms: _711  and  _713
REMARK  284  A    between atoms: _713  and  _714
REMARK                            x       y       z     vdW  Elec       q    Type
REMARK                         _______ _______ _______ _____ _____    ______ ____
ROOT
ATOM      1  C   THR A   1      29.398  11.317  49.068  0.00  0.00    +0.241 C 
ATOM      2  O   THR A   1      30.404  11.960  48.840  0.00  0.00    -0.274 OA
ATOM      3  N   SER A   2      28.398  11.283  48.211  0.00  0.00    -0.296 N 
ATOM      4  H   SER A   2      27.519  10.782  48.450  0.00  0.00    +0.150 HD
ENDROOT
BRANCH   1   5
ATOM      5  CA  THR A   1      29.260  10.550  50.396  0.00  0.00    +0.172 C 
BRANCH   5   6
ATOM      6  N   THR A   1      28.029  10.876  51.100  0.00  0.00    -0.236 NA
ATOM      7  H   THR A   1      27.299  10.148  51.237  0.00  0.00    +0.142 HD
ENDBRANCH   5   6
BRANCH   5   8
ATOM      8  CB  THR A   1      29.423   9.010  50.242  0.00  0.00    +0.135 C 
ATOM      9  CG2 THR A   1      30.699   8.652  49.511  0.00  0.00    +0.034 C 
BRANCH   8  10
ATOM     10  OG1 THR A   1      29.514   8.428  51.545  0.00  0.00    -0.383 OA
ATOM     11  HG1 THR A   1      29.618   7.447  51.460  0.00  0.00    +0.210 HD
ENDBRANCH   8  10
ENDBRANCH   5   8
ENDBRANCH   1   5
BRANCH   3  12
ATOM     12  CA  SER A   2      28.535  11.950  46.933  0.00  0.00    +0.166 C 
BRANCH  12  13
ATOM     13  CB  SER A   2      28.627  13.475  47.102  0.00  0.00    +0.229 C 
ATOM     14  OG  SER A   2      29.537  14.111  46.561  0.00  0.00    -0.286 OA
ENDBRANCH  12  13
BRANCH  12  15
ATOM     15  C   SER A   2      27.377  11.579  45.980  0.00  0.00    +0.165 C 
BRANCH  15  16
ATOM     16  O   SER A   2      27.528  12.237  44.730  0.00  0.00    -0.380 OA
ATOM     17  H   SER A   2      27.526  13.217  44.872  0.00  0.00    +0.211 HD
ENDBRANCH  15  16
ENDBRANCH  12  15
ENDBRANCH   3  12
TORSDOF 8
REMARK  Name = ../refined-set-2016/3gnw/3gnw_pocket.pdb
REMARK  284 active torsions:
REMARK  status: ('A' for Active; 'I' for Inactive)
REMARK    1  A    between atoms: _1  and  _3
REMARK    2  A    between atoms: _3  and  _4
REMARK    3  A    between atoms: _3  and  _6
REMARK    4  A    between atoms: _6  and  _7
REMARK    5  A    between atoms: _7  and  _8
REMARK    6  A    between atoms: _8  and  _9
REMARK    7  A    between atoms: _9  and  _10
REMARK    8  A    between atoms: _14  and  _16
REMARK    9  A    between atoms: _16  and  _17
REMARK   10  A    between atoms: _16  and  _19
REMARK   11  A    between atoms: _19  and  _20
REMARK   12  A    between atoms: _20  and  _21
REMARK   13  A    between atoms: _24  and  _26
REMARK   14  A    between atoms: _26  and  _27
REMARK   15  A    between atoms: _26  and  _29
REMARK   16  A    between atoms: _29  and  _30
REMARK   17  A    between atoms: _36  and  _38
REMARK   18  A    between atoms: _38  and  _39
REMARK   19  A    between atoms: _38  and  _41
REMARK   20  A    between atoms: _41  and  _42
REMARK   21  A    between atoms: _42  and  _43
REMARK   22  A    between atoms: _43  and  _44
REMARK   23  A    between atoms: _53  and  _55
REMARK   24  A    between atoms: _55  and  _56
REMARK   25  A    between atoms: _55  and  _58
REMARK   26  A    between atoms: _58  and  _59
REMARK   27  A    between atoms: _62  and  _64
REMARK   28  A    between atoms: _64  and  _65
REMARK   29  A    between atoms: _67  and  _69
REMARK   30  A    between atoms: _69  and  _70
REMARK   31  A    between atoms: _69  and  _72
REMARK   32  A    between atoms: _72  and  _73
REMARK   33  A    between atoms: _79  and  _81
REMARK   34  A    between atoms: _81  and  _82
REMARK   35  A    between atoms: _81  and  _84
REMARK   36  A    between atoms: _84  and  _85
REMARK   37  A    between atoms: _90  and  _91
REMARK   38  A    between atoms: _93  and  _95
REMARK   39  A    between atoms: _95  and  _96
REMARK   40  A    between atoms: _95  and  _98
REMARK   41  A    between atoms: _98  and  _99
REMARK   42  A    between atoms: _102  and  _103
REMARK   43  A    between atoms: _108  and  _110
REMARK   44  A    between atoms: _110  and  _111
REMARK   45  A    between atoms: _110  and  _113
REMARK   46  A    between atoms: _113  and  _114
REMARK   47  A    between atoms: _114  and  _115
REMARK   48  A    between atoms: _115  and  _116
REMARK   49  A    between atoms: _116  and  _117
REMARK   50  A    between atoms: _121  and  _123
REMARK   51  A    between atoms: _123  and  _124
REMARK   52  A    between atoms: _123  and  _126
REMARK   53  A    between atoms: _126  and  _127
REMARK   54  A    between atoms: _127  and  _128
REMARK   55  A    between atoms: _133  and  _135
REMARK   56  A    between atoms: _135  and  _136
REMARK   57  A    between atoms: _135  and  _138
REMARK   58  A    between atoms: _138  and  _139
REMARK   59  A    between atoms: _139  and  _140
REMARK   60  A    between atoms: _140  and  _141
REMARK   61  A    between atoms: _150  and  _152
REMARK   62  A    between atoms: _152  and  _153
REMARK   63  A    between atoms: _152  and  _155
REMARK   64  A    between atoms: _158  and  _160
REMARK   65  A    between atoms: _160  and  _161
REMARK   66  A    between atoms: _160  and  _163
REMARK   67  A    between atoms: _163  and  _164
REMARK   68  A    between atoms: _167  and  _169
REMARK   69  A    between atoms: _169  and  _170
REMARK   70  A    between atoms: _169  and  _172
REMARK   71  A    between atoms: _172  and  _173
REMARK   72  A    between atoms: _179  and  _181
REMARK   73  A    between atoms: _181  and  _182
REMARK   74  A    between atoms: _181  and  _184
REMARK   75  A    between atoms: _184  and  _185
REMARK   76  A    between atoms: _188  and  _190
REMARK   77  A    between atoms: _190  and  _191
REMARK   78  A    between atoms: _190  and  _193
REMARK   79  A    between atoms: _193  and  _194
REMARK   80  A    between atoms: _196  and  _198
REMARK   81  A    between atoms: _198  and  _199
REMARK   82  A    between atoms: _198  and  _201
REMARK   83  A    between atoms: _201  and  _202
REMARK   84  A    between atoms: _205  and  _207
REMARK   85  A    between atoms: _207  and  _208
REMARK   86  A    between atoms: _207  and  _210
REMARK   87  A    between atoms: _210  and  _211
REMARK   88  A    between atoms: _213  and  _215
REMARK   89  A    between atoms: _215  and  _216
REMARK   90  A    between atoms: _215  and  _218
REMARK   91  A    between atoms: _218  and  _219
REMARK   92  A    between atoms: _224  and  _226
REMARK   93  A    between atoms: _226  and  _227
REMARK   94  A    between atoms: _226  and  _229
REMARK   95  A    between atoms: _229  and  _230
REMARK   96  A    between atoms: _233  and  _235
REMARK   97  A    between atoms: _235  and  _236
REMARK   98  A    between atoms: _235  and  _238
REMARK   99  A    between atoms: _238  and  _239
REMARK  100  A    between atoms: _244  and  _246
REMARK  101  A    between atoms: _246  and  _247
REMARK  102  A    between atoms: _249  and  _251
REMARK  103  A    between atoms: _251  and  _252
REMARK  104  A    between atoms: _251  and  _254
REMARK  105  A    between atoms: _254  and  _255
REMARK  106  A    between atoms: _258  and  _260
REMARK  107  A    between atoms: _260  and  _261
REMARK  108  A    between atoms: _260  and  _263
REMARK  109  A    between atoms: _263  and  _264
REMARK  110  A    between atoms: _267  and  _269
REMARK  111  A    between atoms: _269  and  _270
REMARK  112  A    between atoms: _269  and  _272
REMARK  113  A    between atoms: _272  and  _273
REMARK  114  A    between atoms: _276  and  _278
REMARK  115  A    between atoms: _278  and  _279
REMARK  116  A    between atoms: _278  and  _281
REMARK  117  A    between atoms: _281  and  _282
REMARK  118  A    between atoms: _284  and  _286
REMARK  119  A    between atoms: _286  and  _287
REMARK  120  A    between atoms: _286  and  _289
REMARK  121  A    between atoms: _291  and  _293
REMARK  122  A    between atoms: _293  and  _294
REMARK  123  A    between atoms: _293  and  _296
REMARK  124  A    between atoms: _296  and  _297
REMARK  125  A    between atoms: _299  and  _301
REMARK  126  A    between atoms: _301  and  _302
REMARK  127  A    between atoms: _301  and  _304
REMARK  128  A    between atoms: _304  and  _305
REMARK  129  A    between atoms: _307  and  _309
REMARK  130  A    between atoms: _309  and  _310
REMARK  131  A    between atoms: _309  and  _312
REMARK  132  A    between atoms: _312  and  _313
REMARK  133  A    between atoms: _318  and  _320
REMARK  134  A    between atoms: _320  and  _321
REMARK  135  A    between atoms: _320  and  _323
REMARK  136  A    between atoms: _323  and  _324
REMARK  137  A    between atoms: _329  and  _330
REMARK  138  A    between atoms: _332  and  _334
REMARK  139  A    between atoms: _334  and  _335
REMARK  140  A    between atoms: _334  and  _337
REMARK  141  A    between atoms: _337  and  _338
REMARK  142  A    between atoms: _341  and  _343
REMARK  143  A    between atoms: _343  and  _344
REMARK  144  A    between atoms: _343  and  _346
REMARK  145  A    between atoms: _346  and  _347
REMARK  146  A    between atoms: _350  and  _352
REMARK  147  A    between atoms: _352  and  _353
REMARK  148  A    between atoms: _352  and  _355
REMARK  149  A    between atoms: _355  and  _356
REMARK  150  A    between atoms: _356  and  _357
REMARK  151  A    between atoms: _357  and  _358
REMARK  152  A    between atoms: _367  and  _369
REMARK  153  A    between atoms: _369  and  _370
REMARK  154  A    between atoms: _369  and  _372
REMARK  155  A    between atoms: _372  and  _373
REMARK  156  A    between atoms: _377  and  _378
REMARK  157  A    between atoms: _383  and  _385
REMARK  158  A    between atoms: _385  and  _386
REMARK  159  A    between atoms: _385  and  _388
REMARK  160  A    between atoms: _388  and  _389
REMARK  161  A    between atoms: _389  and  _390
REMARK  162  A    between atoms: _390  and  _391
REMARK  163  A    between atoms: _400  and  _402
REMARK  164  A    between atoms: _402  and  _403
REMARK  165  A    between atoms: _402  and  _405
REMARK  166  A    between atoms: _405  and  _406
REMARK  167  A    between atoms: _406  and  _407
REMARK  168  A    between atoms: _410  and  _412
REMARK  169  A    between atoms: _412  and  _413
REMARK  170  A    between atoms: _412  and  _415
REMARK  171  A    between atoms: _415  and  _416
REMARK  172  A    between atoms: _419  and  _421
REMARK  173  A    between atoms: _421  and  _422
REMARK  174  A    between atoms: _421  and  _424
REMARK  175  A    between atoms: _424  and  _425
REMARK  176  A    between atoms: _430  and  _432
REMARK  177  A    between atoms: _432  and  _433
REMARK  178  A    between atoms: _432  and  _435
REMARK  179  A    between atoms: _435  and  _436
REMARK  180  A    between atoms: _438  and  _440
REMARK  181  A    between atoms: _440  and  _441
REMARK  182  A    between atoms: _440  and  _443
REMARK  183  A    between atoms: _443  and  _444
REMARK  184  A    between atoms: _454  and  _456
REMARK  185  A    between atoms: _456  and  _457
REMARK  186  A    between atoms: _456  and  _459
REMARK  187  A    between atoms: _459  and  _460
REMARK  188  A    between atoms: _463  and  _465
REMARK  189  A    between atoms: _465  and  _466
REMARK  190  A    between atoms: _468  and  _470
REMARK  191  A    between atoms: _470  and  _471
REMARK  192  A    between atoms: _470  and  _473
REMARK  193  A    between atoms: _473  and  _474
REMARK  194  A    between atoms: _479  and  _481
REMARK  195  A    between atoms: _481  and  _482
REMARK  196  A    between atoms: _481  and  _484
REMARK  197  A    between atoms: _484  and  _485
REMARK  198  A    between atoms: _488  and  _490
REMARK  199  A    between atoms: _490  and  _491
REMARK  200  A    between atoms: _490  and  _493
REMARK  201  A    between atoms: _493  and  _494
REMARK  202  A    between atoms: _497  and  _499
REMARK  203  A    between atoms: _499  and  _500
REMARK  204  A    between atoms: _499  and  _502
REMARK  205  A    between atoms: _502  and  _503
REMARK  206  A    between atoms: _503  and  _504
REMARK  207  A    between atoms: _506  and  _508
REMARK  208  A    between atoms: _508  and  _509
REMARK  209  A    between atoms: _508  and  _511
REMARK  210  A    between atoms: _511  and  _512
REMARK  211  A    between atoms: _517  and  _518
REMARK  212  A    between atoms: _520  and  _522
REMARK  213  A    between atoms: _522  and  _523
REMARK  214  A    between atoms: _527  and  _528
REMARK  215  A    between atoms: _533  and  _535
REMARK  216  A    between atoms: _535  and  _536
REMARK  217  A    between atoms: _535  and  _538
REMARK  218  A    between atoms: _538  and  _539
REMARK  219  A    between atoms: _542  and  _544
REMARK  220  A    between atoms: _544  and  _545
REMARK  221  A    between atoms: _544  and  _547
REMARK  222  A    between atoms: _547  and  _548
REMARK  223  A    between atoms: _558  and  _560
REMARK  224  A    between atoms: _560  and  _561
REMARK  225  A    between atoms: _560  and  _563
REMARK  226  A    between atoms: _563  and  _564
REMARK  227  A    between atoms: _567  and  _569
REMARK  228  A    between atoms: _569  and  _570
REMARK  229  A    between atoms: _569  and  _572
REMARK  230  A    between atoms: _574  and  _576
REMARK  231  A    between atoms: _576  and  _577
REMARK  232  A    between atoms: _576  and  _579
REMARK  233  A    between atoms: _579  and  _580
REMARK  234  A    between atoms: _580  and  _581
REMARK  235  A    between atoms: _586  and  _588
REMARK  236  A    between atoms: _588  and  _589
REMARK  237  A    between atoms: _588  and  _591
REMARK  238  A    between atoms: _591  and  _592
REMARK  239  A    between atoms: _595  and  _597
REMARK  240  A    between atoms: _597  and  _598
REMARK  241  A    between atoms: _597  and  _600
REMARK  242  A    between atoms: _600  and  _601
REMARK  243  A    between atoms: _606  and  _607
REMARK  244  A    between atoms: _609  and  _611
REMARK  245  A    between atoms: _611  and  _612
REMARK  246  A    between atoms: _614  and  _616
REMARK  247  A    between atoms: _616  and  _617
REMARK  248  A    between atoms: _620  and  _622
REMARK  249  A    between atoms: _622  and  _623
REMARK  250  A    between atoms: _622  and  _625
REMARK  251  A    between atoms: _627  and  _629
REMARK  252  A    between atoms: _629  and  _630
REMARK  253  A    between atoms: _629  and  _632
REMARK  254  A    between atoms: _632  and  _633
REMARK  255  A    between atoms: _638  and  _639
REMARK  256  A    between atoms: _641  and  _643
REMARK  257  A    between atoms: _643  and  _644
REMARK  258  A    between atoms: _643  and  _646
REMARK  259  A    between atoms: _646  and  _647
REMARK  260  A    between atoms: _650  and  _652
REMARK  261  A    between atoms: _652  and  _653
REMARK  262  A    between atoms: _652  and  _655
REMARK  263  A    between atoms: _655  and  _656
REMARK  264  A    between atoms: _661  and  _663
REMARK  265  A    between atoms: _663  and  _664
REMARK  266  A    between atoms: _663  and  _666
REMARK  267  A    between atoms: _666  and  _667
REMARK  268  A    between atoms: _673  and  _675
REMARK  269  A    between atoms: _675  and  _676
REMARK  270  A    between atoms: _679  and  _681
REMARK  271  A    between atoms: _681  and  _682
REMARK  272  A    between atoms: _684  and  _686
REMARK  273  A    between atoms: _686  and  _687
REMARK  274  A    between atoms: _686  and  _689
REMARK  275  A    between atoms: _689  and  _690
REMARK  276  A    between atoms: _695  and  _696
REMARK  277  A    between atoms: _698  and  _700
REMARK  278  A    between atoms: _700  and  _701
REMARK  279  A    between atoms: _700  and  _703
REMARK  280  A    between atoms: _703  and  _704
REMARK  281  A    between atoms: _706  and  _708
REMARK  282  A    between atoms: _708  and  _709
REMARK  283  A    between atoms: _711  and  _713
REMARK  284  A    between atoms: _713  and  _714
REMARK                            x       y       z     vdW  Elec       q    Type
REMARK                         _______ _______ _______ _____ _____    ______ ____
ROOT
ATOM      1  CB  ASN A   1      33.115  12.670  47.460  0.00  0.00    +0.110 C 
ENDROOT
BRANCH   1   2
ATOM      2  CG  ASN A   1      33.604  11.528  48.347  0.00  0.00    +0.221 C 
ATOM      3  OD1 ASN A   1      34.248  11.752  49.368  0.00  0.00    -0.275 OA
ATOM      4  ND2 ASN A   1      33.349  10.294  47.921  0.00  0.00    -0.329 N 
ATOM      5 HD21 ASN A   1      33.699   9.476  48.459  0.00  0.00    +0.145 HD
ATOM      6 HD22 ASN A   1      32.799  10.148  47.050  0.00  0.00    +0.145 HD
ENDBRANCH   1   2
BRANCH   1   7
ATOM      7  CA  ASN A   1      33.148  14.035  48.159  0.00  0.00    +0.142 C 
BRANCH   7   8
ATOM      8  N   ASN A   1      32.023  14.202  49.073  0.00  0.00    -0.239 NA
ATOM      9  H   ASN A   1      31.297  13.460  49.135  0.00  0.00    +0.142 HD
ENDBRANCH   7   8
BRANCH   7  10
ATOM     10  C   ASN A   1      33.172  15.161  47.121  0.00  0.00    +0.225 C 
ATOM     11  O   ASN A   1      34.232  15.696  46.830  0.00  0.00    -0.287 OA
ENDBRANCH   7  10
ENDBRANCH   1   7
TORSDOF 4
REMARK  Name = ../refined-set-2016/3gnw/3gnw_pocket.pdb
REMARK  284 active torsions:
REMARK  status: ('A' for Active; 'I' for Inactive)
REMARK    1  A    between atoms: _1  and  _3
REMARK    2  A    between atoms: _3  and  _4
REMARK    3  A    between atoms: _3  and  _6
REMARK    4  A    between atoms: _6  and  _7
REMARK    5  A    between atoms: _7  and  _8
REMARK    6  A    between atoms: _8  and  _9
REMARK    7  A    between atoms: _9  and  _10
REMARK    8  A    between atoms: _14  and  _16
REMARK    9  A    between atoms: _16  and  _17
REMARK   10  A    between atoms: _16  and  _19
REMARK   11  A    between atoms: _19  and  _20
REMARK   12  A    between atoms: _20  and  _21
REMARK   13  A    between atoms: _24  and  _26
REMARK   14  A    between atoms: _26  and  _27
REMARK   15  A    between atoms: _26  and  _29
REMARK   16  A    between atoms: _29  and  _30
REMARK   17  A    between atoms: _36  and  _38
REMARK   18  A    between atoms: _38  and  _39
REMARK   19  A    between atoms: _38  and  _41
REMARK   20  A    between atoms: _41  and  _42
REMARK   21  A    between atoms: _42  and  _43
REMARK   22  A    between atoms: _43  and  _44
REMARK   23  A    between atoms: _53  and  _55
REMARK   24  A    between atoms: _55  and  _56
REMARK   25  A    between atoms: _55  and  _58
REMARK   26  A    between atoms: _58  and  _59
REMARK   27  A    between atoms: _62  and  _64
REMARK   28  A    between atoms: _64  and  _65
REMARK   29  A    between atoms: _67  and  _69
REMARK   30  A    between atoms: _69  and  _70
REMARK   31  A    between atoms: _69  and  _72
REMARK   32  A    between atoms: _72  and  _73
REMARK   33  A    between atoms: _79  and  _81
REMARK   34  A    between atoms: _81  and  _82
REMARK   35  A    between atoms: _81  and  _84
REMARK   36  A    between atoms: _84  and  _85
REMARK   37  A    between atoms: _90  and  _91
REMARK   38  A    between atoms: _93  and  _95
REMARK   39  A    between atoms: _95  and  _96
REMARK   40  A    between atoms: _95  and  _98
REMARK   41  A    between atoms: _98  and  _99
REMARK   42  A    between atoms: _102  and  _103
REMARK   43  A    between atoms: _108  and  _110
REMARK   44  A    between atoms: _110  and  _111
REMARK   45  A    between atoms: _110  and  _113
REMARK   46  A    between atoms: _113  and  _114
REMARK   47  A    between atoms: _114  and  _115
REMARK   48  A    between atoms: _115  and  _116
REMARK   49  A    between atoms: _116  and  _117
REMARK   50  A    between atoms: _121  and  _123
REMARK   51  A    between atoms: _123  and  _124
REMARK   52  A    between atoms: _123  and  _126
REMARK   53  A    between atoms: _126  and  _127
REMARK   54  A    between atoms: _127  and  _128
REMARK   55  A    between atoms: _133  and  _135
REMARK   56  A    between atoms: _135  and  _136
REMARK   57  A    between atoms: _135  and  _138
REMARK   58  A    between atoms: _138  and  _139
REMARK   59  A    between atoms: _139  and  _140
REMARK   60  A    between atoms: _140  and  _141
REMARK   61  A    between atoms: _150  and  _152
REMARK   62  A    between atoms: _152  and  _153
REMARK   63  A    between atoms: _152  and  _155
REMARK   64  A    between atoms: _158  and  _160
REMARK   65  A    between atoms: _160  and  _161
REMARK   66  A    between atoms: _160  and  _163
REMARK   67  A    between atoms: _163  and  _164
REMARK   68  A    between atoms: _167  and  _169
REMARK   69  A    between atoms: _169  and  _170
REMARK   70  A    between atoms: _169  and  _172
REMARK   71  A    between atoms: _172  and  _173
REMARK   72  A    between atoms: _179  and  _181
REMARK   73  A    between atoms: _181  and  _182
REMARK   74  A    between atoms: _181  and  _184
REMARK   75  A    between atoms: _184  and  _185
REMARK   76  A    between atoms: _188  and  _190
REMARK   77  A    between atoms: _190  and  _191
REMARK   78  A    between atoms: _190  and  _193
REMARK   79  A    between atoms: _193  and  _194
REMARK   80  A    between atoms: _196  and  _198
REMARK   81  A    between atoms: _198  and  _199
REMARK   82  A    between atoms: _198  and  _201
REMARK   83  A    between atoms: _201  and  _202
REMARK   84  A    between atoms: _205  and  _207
REMARK   85  A    between atoms: _207  and  _208
REMARK   86  A    between atoms: _207  and  _210
REMARK   87  A    between atoms: _210  and  _211
REMARK   88  A    between atoms: _213  and  _215
REMARK   89  A    between atoms: _215  and  _216
REMARK   90  A    between atoms: _215  and  _218
REMARK   91  A    between atoms: _218  and  _219
REMARK   92  A    between atoms: _224  and  _226
REMARK   93  A    between atoms: _226  and  _227
REMARK   94  A    between atoms: _226  and  _229
REMARK   95  A    between atoms: _229  and  _230
REMARK   96  A    between atoms: _233  and  _235
REMARK   97  A    between atoms: _235  and  _236
REMARK   98  A    between atoms: _235  and  _238
REMARK   99  A    between atoms: _238  and  _239
REMARK  100  A    between atoms: _244  and  _246
REMARK  101  A    between atoms: _246  and  _247
REMARK  102  A    between atoms: _249  and  _251
REMARK  103  A    between atoms: _251  and  _252
REMARK  104  A    between atoms: _251  and  _254
REMARK  105  A    between atoms: _254  and  _255
REMARK  106  A    between atoms: _258  and  _260
REMARK  107  A    between atoms: _260  and  _261
REMARK  108  A    between atoms: _260  and  _263
REMARK  109  A    between atoms: _263  and  _264
REMARK  110  A    between atoms: _267  and  _269
REMARK  111  A    between atoms: _269  and  _270
REMARK  112  A    between atoms: _269  and  _272
REMARK  113  A    between atoms: _272  and  _273
REMARK  114  A    between atoms: _276  and  _278
REMARK  115  A    between atoms: _278  and  _279
REMARK  116  A    between atoms: _278  and  _281
REMARK  117  A    between atoms: _281  and  _282
REMARK  118  A    between atoms: _284  and  _286
REMARK  119  A    between atoms: _286  and  _287
REMARK  120  A    between atoms: _286  and  _289
REMARK  121  A    between atoms: _291  and  _293
REMARK  122  A    between atoms: _293  and  _294
REMARK  123  A    between atoms: _293  and  _296
REMARK  124  A    between atoms: _296  and  _297
REMARK  125  A    between atoms: _299  and  _301
REMARK  126  A    between atoms: _301  and  _302
REMARK  127  A    between atoms: _301  and  _304
REMARK  128  A    between atoms: _304  and  _305
REMARK  129  A    between atoms: _307  and  _309
REMARK  130  A    between atoms: _309  and  _310
REMARK  131  A    between atoms: _309  and  _312
REMARK  132  A    between atoms: _312  and  _313
REMARK  133  A    between atoms: _318  and  _320
REMARK  134  A    between atoms: _320  and  _321
REMARK  135  A    between atoms: _320  and  _323
REMARK  136  A    between atoms: _323  and  _324
REMARK  137  A    between atoms: _329  and  _330
REMARK  138  A    between atoms: _332  and  _334
REMARK  139  A    between atoms: _334  and  _335
REMARK  140  A    between atoms: _334  and  _337
REMARK  141  A    between atoms: _337  and  _338
REMARK  142  A    between atoms: _341  and  _343
REMARK  143  A    between atoms: _343  and  _344
REMARK  144  A    between atoms: _343  and  _346
REMARK  145  A    between atoms: _346  and  _347
REMARK  146  A    between atoms: _350  and  _352
REMARK  147  A    between atoms: _352  and  _353
REMARK  148  A    between atoms: _352  and  _355
REMARK  149  A    between atoms: _355  and  _356
REMARK  150  A    between atoms: _356  and  _357
REMARK  151  A    between atoms: _357  and  _358
REMARK  152  A    between atoms: _367  and  _369
REMARK  153  A    between atoms: _369  and  _370
REMARK  154  A    between atoms: _369  and  _372
REMARK  155  A    between atoms: _372  and  _373
REMARK  156  A    between atoms: _377  and  _378
REMARK  157  A    between atoms: _383  and  _385
REMARK  158  A    between atoms: _385  and  _386
REMARK  159  A    between atoms: _385  and  _388
REMARK  160  A    between atoms: _388  and  _389
REMARK  161  A    between atoms: _389  and  _390
REMARK  162  A    between atoms: _390  and  _391
REMARK  163  A    between atoms: _400  and  _402
REMARK  164  A    between atoms: _402  and  _403
REMARK  165  A    between atoms: _402  and  _405
REMARK  166  A    between atoms: _405  and  _406
REMARK  167  A    between atoms: _406  and  _407
REMARK  168  A    between atoms: _410  and  _412
REMARK  169  A    between atoms: _412  and  _413
REMARK  170  A    between atoms: _412  and  _415
REMARK  171  A    between atoms: _415  and  _416
REMARK  172  A    between atoms: _419  and  _421
REMARK  173  A    between atoms: _421  and  _422
REMARK  174  A    between atoms: _421  and  _424
REMARK  175  A    between atoms: _424  and  _425
REMARK  176  A    between atoms: _430  and  _432
REMARK  177  A    between atoms: _432  and  _433
REMARK  178  A    between atoms: _432  and  _435
REMARK  179  A    between atoms: _435  and  _436
REMARK  180  A    between atoms: _438  and  _440
REMARK  181  A    between atoms: _440  and  _441
REMARK  182  A    between atoms: _440  and  _443
REMARK  183  A    between atoms: _443  and  _444
REMARK  184  A    between atoms: _454  and  _456
REMARK  185  A    between atoms: _456  and  _457
REMARK  186  A    between atoms: _456  and  _459
REMARK  187  A    between atoms: _459  and  _460
REMARK  188  A    between atoms: _463  and  _465
REMARK  189  A    between atoms: _465  and  _466
REMARK  190  A    between atoms: _468  and  _470
REMARK  191  A    between atoms: _470  and  _471
REMARK  192  A    between atoms: _470  and  _473
REMARK  193  A    between atoms: _473  and  _474
REMARK  194  A    between atoms: _479  and  _481
REMARK  195  A    between atoms: _481  and  _482
REMARK  196  A    between atoms: _481  and  _484
REMARK  197  A    between atoms: _484  and  _485
REMARK  198  A    between atoms: _488  and  _490
REMARK  199  A    between atoms: _490  and  _491
REMARK  200  A    between atoms: _490  and  _493
REMARK  201  A    between atoms: _493  and  _494
REMARK  202  A    between atoms: _497  and  _499
REMARK  203  A    between atoms: _499  and  _500
REMARK  204  A    between atoms: _499  and  _502
REMARK  205  A    between atoms: _502  and  _503
REMARK  206  A    between atoms: _503  and  _504
REMARK  207  A    between atoms: _506  and  _508
REMARK  208  A    between atoms: _508  and  _509
REMARK  209  A    between atoms: _508  and  _511
REMARK  210  A    between atoms: _511  and  _512
REMARK  211  A    between atoms: _517  and  _518
REMARK  212  A    between atoms: _520  and  _522
REMARK  213  A    between atoms: _522  and  _523
REMARK  214  A    between atoms: _527  and  _528
REMARK  215  A    between atoms: _533  and  _535
REMARK  216  A    between atoms: _535  and  _536
REMARK  217  A    between atoms: _535  and  _538
REMARK  218  A    between atoms: _538  and  _539
REMARK  219  A    between atoms: _542  and  _544
REMARK  220  A    between atoms: _544  and  _545
REMARK  221  A    between atoms: _544  and  _547
REMARK  222  A    between atoms: _547  and  _548
REMARK  223  A    between atoms: _558  and  _560
REMARK  224  A    between atoms: _560  and  _561
REMARK  225  A    between atoms: _560  and  _563
REMARK  226  A    between atoms: _563  and  _564
REMARK  227  A    between atoms: _567  and  _569
REMARK  228  A    between atoms: _569  and  _570
REMARK  229  A    between atoms: _569  and  _572
REMARK  230  A    between atoms: _574  and  _576
REMARK  231  A    between atoms: _576  and  _577
REMARK  232  A    between atoms: _576  and  _579
REMARK  233  A    between atoms: _579  and  _580
REMARK  234  A    between atoms: _580  and  _581
REMARK  235  A    between atoms: _586  and  _588
REMARK  236  A    between atoms: _588  and  _589
REMARK  237  A    between atoms: _588  and  _591
REMARK  238  A    between atoms: _591  and  _592
REMARK  239  A    between atoms: _595  and  _597
REMARK  240  A    between atoms: _597  and  _598
REMARK  241  A    between atoms: _597  and  _600
REMARK  242  A    between atoms: _600  and  _601
REMARK  243  A    between atoms: _606  and  _607
REMARK  244  A    between atoms: _609  and  _611
REMARK  245  A    between atoms: _611  and  _612
REMARK  246  A    between atoms: _614  and  _616
REMARK  247  A    between atoms: _616  and  _617
REMARK  248  A    between atoms: _620  and  _622
REMARK  249  A    between atoms: _622  and  _623
REMARK  250  A    between atoms: _622  and  _625
REMARK  251  A    between atoms: _627  and  _629
REMARK  252  A    between atoms: _629  and  _630
REMARK  253  A    between atoms: _629  and  _632
REMARK  254  A    between atoms: _632  and  _633
REMARK  255  A    between atoms: _638  and  _639
REMARK  256  A    between atoms: _641  and  _643
REMARK  257  A    between atoms: _643  and  _644
REMARK  258  A    between atoms: _643  and  _646
REMARK  259  A    between atoms: _646  and  _647
REMARK  260  A    between atoms: _650  and  _652
REMARK  261  A    between atoms: _652  and  _653
REMARK  262  A    between atoms: _652  and  _655
REMARK  263  A    between atoms: _655  and  _656
REMARK  264  A    between atoms: _661  and  _663
REMARK  265  A    between atoms: _663  and  _664
REMARK  266  A    between atoms: _663  and  _666
REMARK  267  A    between atoms: _666  and  _667
REMARK  268  A    between atoms: _673  and  _675
REMARK  269  A    between atoms: _675  and  _676
REMARK  270  A    between atoms: _679  and  _681
REMARK  271  A    between atoms: _681  and  _682
REMARK  272  A    between atoms: _684  and  _686
REMARK  273  A    between atoms: _686  and  _687
REMARK  274  A    between atoms: _686  and  _689
REMARK  275  A    between atoms: _689  and  _690
REMARK  276  A    between atoms: _695  and  _696
REMARK  277  A    between atoms: _698  and  _700
REMARK  278  A    between atoms: _700  and  _701
REMARK  279  A    between atoms: _700  and  _703
REMARK  280  A    between atoms: _703  and  _704
REMARK  281  A    between atoms: _706  and  _708
REMARK  282  A    between atoms: _708  and  _709
REMARK  283  A    between atoms: _711  and  _713
REMARK  284  A    between atoms: _713  and  _714
REMARK                            x       y       z     vdW  Elec       q    Type
REMARK                         _______ _______ _______ _____ _____    ______ ____
ROOT
ATOM      1  CA  LEU A   1      33.524  19.911  36.471  0.00  0.00    +0.133 C 
ENDROOT
BRANCH   1   2
ATOM      2  N   LEU A   1      34.665  20.774  36.425  0.00  0.00    -0.239 NA
ATOM      3  H   LEU A   1      35.603  20.352  36.272  0.00  0.00    +0.142 HD
ENDBRANCH   1   2
BRANCH   1   4
ATOM      4  C   LEU A   1      33.795  18.804  37.498  0.00  0.00    +0.224 C 
ATOM      5  O   LEU A   1      34.769  18.057  37.379  0.00  0.00    -0.287 OA
ENDBRANCH   1   4
BRANCH   1   6
ATOM      6  CB  LEU A   1      33.302  19.316  35.101  0.00  0.00    +0.025 C 
BRANCH   6   7
ATOM      7  CG  LEU A   1      32.062  18.444  34.955  0.00  0.00    +0.002 C 
ATOM      8  CD2 LEU A   1      30.831  19.146  35.518  0.00  0.00    +0.000 C 
ATOM      9  CD1 LEU A   1      31.873  18.122  33.473  0.00  0.00    +0.000 C 
ENDBRANCH   6   7
ENDBRANCH   1   6
TORSDOF 4
REMARK  Name = ../refined-set-2016/3gnw/3gnw_pocket.pdb
REMARK  284 active torsions:
REMARK  status: ('A' for Active; 'I' for Inactive)
REMARK    1  A    between atoms: _1  and  _3
REMARK    2  A    between atoms: _3  and  _4
REMARK    3  A    between atoms: _3  and  _6
REMARK    4  A    between atoms: _6  and  _7
REMARK    5  A    between atoms: _7  and  _8
REMARK    6  A    between atoms: _8  and  _9
REMARK    7  A    between atoms: _9  and  _10
REMARK    8  A    between atoms: _14  and  _16
REMARK    9  A    between atoms: _16  and  _17
REMARK   10  A    between atoms: _16  and  _19
REMARK   11  A    between atoms: _19  and  _20
REMARK   12  A    between atoms: _20  and  _21
REMARK   13  A    between atoms: _24  and  _26
REMARK   14  A    between atoms: _26  and  _27
REMARK   15  A    between atoms: _26  and  _29
REMARK   16  A    between atoms: _29  and  _30
REMARK   17  A    between atoms: _36  and  _38
REMARK   18  A    between atoms: _38  and  _39
REMARK   19  A    between atoms: _38  and  _41
REMARK   20  A    between atoms: _41  and  _42
REMARK   21  A    between atoms: _42  and  _43
REMARK   22  A    between atoms: _43  and  _44
REMARK   23  A    between atoms: _53  and  _55
REMARK   24  A    between atoms: _55  and  _56
REMARK   25  A    between atoms: _55  and  _58
REMARK   26  A    between atoms: _58  and  _59
REMARK   27  A    between atoms: _62  and  _64
REMARK   28  A    between atoms: _64  and  _65
REMARK   29  A    between atoms: _67  and  _69
REMARK   30  A    between atoms: _69  and  _70
REMARK   31  A    between atoms: _69  and  _72
REMARK   32  A    between atoms: _72  and  _73
REMARK   33  A    between atoms: _79  and  _81
REMARK   34  A    between atoms: _81  and  _82
REMARK   35  A    between atoms: _81  and  _84
REMARK   36  A    between atoms: _84  and  _85
REMARK   37  A    between atoms: _90  and  _91
REMARK   38  A    between atoms: _93  and  _95
REMARK   39  A    between atoms: _95  and  _96
REMARK   40  A    between atoms: _95  and  _98
REMARK   41  A    between atoms: _98  and  _99
REMARK   42  A    between atoms: _102  and  _103
REMARK   43  A    between atoms: _108  and  _110
REMARK   44  A    between atoms: _110  and  _111
REMARK   45  A    between atoms: _110  and  _113
REMARK   46  A    between atoms: _113  and  _114
REMARK   47  A    between atoms: _114  and  _115
REMARK   48  A    between atoms: _115  and  _116
REMARK   49  A    between atoms: _116  and  _117
REMARK   50  A    between atoms: _121  and  _123
REMARK   51  A    between atoms: _123  and  _124
REMARK   52  A    between atoms: _123  and  _126
REMARK   53  A    between atoms: _126  and  _127
REMARK   54  A    between atoms: _127  and  _128
REMARK   55  A    between atoms: _133  and  _135
REMARK   56  A    between atoms: _135  and  _136
REMARK   57  A    between atoms: _135  and  _138
REMARK   58  A    between atoms: _138  and  _139
REMARK   59  A    between atoms: _139  and  _140
REMARK   60  A    between atoms: _140  and  _141
REMARK   61  A    between atoms: _150  and  _152
REMARK   62  A    between atoms: _152  and  _153
REMARK   63  A    between atoms: _152  and  _155
REMARK   64  A    between atoms: _158  and  _160
REMARK   65  A    between atoms: _160  and  _161
REMARK   66  A    between atoms: _160  and  _163
REMARK   67  A    between atoms: _163  and  _164
REMARK   68  A    between atoms: _167  and  _169
REMARK   69  A    between atoms: _169  and  _170
REMARK   70  A    between atoms: _169  and  _172
REMARK   71  A    between atoms: _172  and  _173
REMARK   72  A    between atoms: _179  and  _181
REMARK   73  A    between atoms: _181  and  _182
REMARK   74  A    between atoms: _181  and  _184
REMARK   75  A    between atoms: _184  and  _185
REMARK   76  A    between atoms: _188  and  _190
REMARK   77  A    between atoms: _190  and  _191
REMARK   78  A    between atoms: _190  and  _193
REMARK   79  A    between atoms: _193  and  _194
REMARK   80  A    between atoms: _196  and  _198
REMARK   81  A    between atoms: _198  and  _199
REMARK   82  A    between atoms: _198  and  _201
REMARK   83  A    between atoms: _201  and  _202
REMARK   84  A    between atoms: _205  and  _207
REMARK   85  A    between atoms: _207  and  _208
REMARK   86  A    between atoms: _207  and  _210
REMARK   87  A    between atoms: _210  and  _211
REMARK   88  A    between atoms: _213  and  _215
REMARK   89  A    between atoms: _215  and  _216
REMARK   90  A    between atoms: _215  and  _218
REMARK   91  A    between atoms: _218  and  _219
REMARK   92  A    between atoms: _224  and  _226
REMARK   93  A    between atoms: _226  and  _227
REMARK   94  A    between atoms: _226  and  _229
REMARK   95  A    between atoms: _229  and  _230
REMARK   96  A    between atoms: _233  and  _235
REMARK   97  A    between atoms: _235  and  _236
REMARK   98  A    between atoms: _235  and  _238
REMARK   99  A    between atoms: _238  and  _239
REMARK  100  A    between atoms: _244  and  _246
REMARK  101  A    between atoms: _246  and  _247
REMARK  102  A    between atoms: _249  and  _251
REMARK  103  A    between atoms: _251  and  _252
REMARK  104  A    between atoms: _251  and  _254
REMARK  105  A    between atoms: _254  and  _255
REMARK  106  A    between atoms: _258  and  _260
REMARK  107  A    between atoms: _260  and  _261
REMARK  108  A    between atoms: _260  and  _263
REMARK  109  A    between atoms: _263  and  _264
REMARK  110  A    between atoms: _267  and  _269
REMARK  111  A    between atoms: _269  and  _270
REMARK  112  A    between atoms: _269  and  _272
REMARK  113  A    between atoms: _272  and  _273
REMARK  114  A    between atoms: _276  and  _278
REMARK  115  A    between atoms: _278  and  _279
REMARK  116  A    between atoms: _278  and  _281
REMARK  117  A    between atoms: _281  and  _282
REMARK  118  A    between atoms: _284  and  _286
REMARK  119  A    between atoms: _286  and  _287
REMARK  120  A    between atoms: _286  and  _289
REMARK  121  A    between atoms: _291  and  _293
REMARK  122  A    between atoms: _293  and  _294
REMARK  123  A    between atoms: _293  and  _296
REMARK  124  A    between atoms: _296  and  _297
REMARK  125  A    between atoms: _299  and  _301
REMARK  126  A    between atoms: _301  and  _302
REMARK  127  A    between atoms: _301  and  _304
REMARK  128  A    between atoms: _304  and  _305
REMARK  129  A    between atoms: _307  and  _309
REMARK  130  A    between atoms: _309  and  _310
REMARK  131  A    between atoms: _309  and  _312
REMARK  132  A    between atoms: _312  and  _313
REMARK  133  A    between atoms: _318  and  _320
REMARK  134  A    between atoms: _320  and  _321
REMARK  135  A    between atoms: _320  and  _323
REMARK  136  A    between atoms: _323  and  _324
REMARK  137  A    between atoms: _329  and  _330
REMARK  138  A    between atoms: _332  and  _334
REMARK  139  A    between atoms: _334  and  _335
REMARK  140  A    between atoms: _334  and  _337
REMARK  141  A    between atoms: _337  and  _338
REMARK  142  A    between atoms: _341  and  _343
REMARK  143  A    between atoms: _343  and  _344
REMARK  144  A    between atoms: _343  and  _346
REMARK  145  A    between atoms: _346  and  _347
REMARK  146  A    between atoms: _350  and  _352
REMARK  147  A    between atoms: _352  and  _353
REMARK  148  A    between atoms: _352  and  _355
REMARK  149  A    between atoms: _355  and  _356
REMARK  150  A    between atoms: _356  and  _357
REMARK  151  A    between atoms: _357  and  _358
REMARK  152  A    between atoms: _367  and  _369
REMARK  153  A    between atoms: _369  and  _370
REMARK  154  A    between atoms: _369  and  _372
REMARK  155  A    between atoms: _372  and  _373
REMARK  156  A    between atoms: _377  and  _378
REMARK  157  A    between atoms: _383  and  _385
REMARK  158  A    between atoms: _385  and  _386
REMARK  159  A    between atoms: _385  and  _388
REMARK  160  A    between atoms: _388  and  _389
REMARK  161  A    between atoms: _389  and  _390
REMARK  162  A    between atoms: _390  and  _391
REMARK  163  A    between atoms: _400  and  _402
REMARK  164  A    between atoms: _402  and  _403
REMARK  165  A    between atoms: _402  and  _405
REMARK  166  A    between atoms: _405  and  _406
REMARK  167  A    between atoms: _406  and  _407
REMARK  168  A    between atoms: _410  and  _412
REMARK  169  A    between atoms: _412  and  _413
REMARK  170  A    between atoms: _412  and  _415
REMARK  171  A    between atoms: _415  and  _416
REMARK  172  A    between atoms: _419  and  _421
REMARK  173  A    between atoms: _421  and  _422
REMARK  174  A    between atoms: _421  and  _424
REMARK  175  A    between atoms: _424  and  _425
REMARK  176  A    between atoms: _430  and  _432
REMARK  177  A    between atoms: _432  and  _433
REMARK  178  A    between atoms: _432  and  _435
REMARK  179  A    between atoms: _435  and  _436
REMARK  180  A    between atoms: _438  and  _440
REMARK  181  A    between atoms: _440  and  _441
REMARK  182  A    between atoms: _440  and  _443
REMARK  183  A    between atoms: _443  and  _444
REMARK  184  A    between atoms: _454  and  _456
REMARK  185  A    between atoms: _456  and  _457
REMARK  186  A    between atoms: _456  and  _459
REMARK  187  A    between atoms: _459  and  _460
REMARK  188  A    between atoms: _463  and  _465
REMARK  189  A    between atoms: _465  and  _466
REMARK  190  A    between atoms: _468  and  _470
REMARK  191  A    between atoms: _470  and  _471
REMARK  192  A    between atoms: _470  and  _473
REMARK  193  A    between atoms: _473  and  _474
REMARK  194  A    between atoms: _479  and  _481
REMARK  195  A    between atoms: _481  and  _482
REMARK  196  A    between atoms: _481  and  _484
REMARK  197  A    between atoms: _484  and  _485
REMARK  198  A    between atoms: _488  and  _490
REMARK  199  A    between atoms: _490  and  _491
REMARK  200  A    between atoms: _490  and  _493
REMARK  201  A    between atoms: _493  and  _494
REMARK  202  A    between atoms: _497  and  _499
REMARK  203  A    between atoms: _499  and  _500
REMARK  204  A    between atoms: _499  and  _502
REMARK  205  A    between atoms: _502  and  _503
REMARK  206  A    between atoms: _503  and  _504
REMARK  207  A    between atoms: _506  and  _508
REMARK  208  A    between atoms: _508  and  _509
REMARK  209  A    between atoms: _508  and  _511
REMARK  210  A    between atoms: _511  and  _512
REMARK  211  A    between atoms: _517  and  _518
REMARK  212  A    between atoms: _520  and  _522
REMARK  213  A    between atoms: _522  and  _523
REMARK  214  A    between atoms: _527  and  _528
REMARK  215  A    between atoms: _533  and  _535
REMARK  216  A    between atoms: _535  and  _536
REMARK  217  A    between atoms: _535  and  _538
REMARK  218  A    between atoms: _538  and  _539
REMARK  219  A    between atoms: _542  and  _544
REMARK  220  A    between atoms: _544  and  _545
REMARK  221  A    between atoms: _544  and  _547
REMARK  222  A    between atoms: _547  and  _548
REMARK  223  A    between atoms: _558  and  _560
REMARK  224  A    between atoms: _560  and  _561
REMARK  225  A    between atoms: _560  and  _563
REMARK  226  A    between atoms: _563  and  _564
REMARK  227  A    between atoms: _567  and  _569
REMARK  228  A    between atoms: _569  and  _570
REMARK  229  A    between atoms: _569  and  _572
REMARK  230  A    between atoms: _574  and  _576
REMARK  231  A    between atoms: _576  and  _577
REMARK  232  A    between atoms: _576  and  _579
REMARK  233  A    between atoms: _579  and  _580
REMARK  234  A    between atoms: _580  and  _581
REMARK  235  A    between atoms: _586  and  _588
REMARK  236  A    between atoms: _588  and  _589
REMARK  237  A    between atoms: _588  and  _591
REMARK  238  A    between atoms: _591  and  _592
REMARK  239  A    between atoms: _595  and  _597
REMARK  240  A    between atoms: _597  and  _598
REMARK  241  A    between atoms: _597  and  _600
REMARK  242  A    between atoms: _600  and  _601
REMARK  243  A    between atoms: _606  and  _607
REMARK  244  A    between atoms: _609  and  _611
REMARK  245  A    between atoms: _611  and  _612
REMARK  246  A    between atoms: _614  and  _616
REMARK  247  A    between atoms: _616  and  _617
REMARK  248  A    between atoms: _620  and  _622
REMARK  249  A    between atoms: _622  and  _623
REMARK  250  A    between atoms: _622  and  _625
REMARK  251  A    between atoms: _627  and  _629
REMARK  252  A    between atoms: _629  and  _630
REMARK  253  A    between atoms: _629  and  _632
REMARK  254  A    between atoms: _632  and  _633
REMARK  255  A    between atoms: _638  and  _639
REMARK  256  A    between atoms: _641  and  _643
REMARK  257  A    between atoms: _643  and  _644
REMARK  258  A    between atoms: _643  and  _646
REMARK  259  A    between atoms: _646  and  _647
REMARK  260  A    between atoms: _650  and  _652
REMARK  261  A    between atoms: _652  and  _653
REMARK  262  A    between atoms: _652  and  _655
REMARK  263  A    between atoms: _655  and  _656
REMARK  264  A    between atoms: _661  and  _663
REMARK  265  A    between atoms: _663  and  _664
REMARK  266  A    between atoms: _663  and  _666
REMARK  267  A    between atoms: _666  and  _667
REMARK  268  A    between atoms: _673  and  _675
REMARK  269  A    between atoms: _675  and  _676
REMARK  270  A    between atoms: _679  and  _681
REMARK  271  A    between atoms: _681  and  _682
REMARK  272  A    between atoms: _684  and  _686
REMARK  273  A    between atoms: _686  and  _687
REMARK  274  A    between atoms: _686  and  _689
REMARK  275  A    between atoms: _689  and  _690
REMARK  276  A    between atoms: _695  and  _696
REMARK  277  A    between atoms: _698  and  _700
REMARK  278  A    between atoms: _700  and  _701
REMARK  279  A    between atoms: _700  and  _703
REMARK  280  A    between atoms: _703  and  _704
REMARK  281  A    between atoms: _706  and  _708
REMARK  282  A    between atoms: _708  and  _709
REMARK  283  A    between atoms: _711  and  _713
REMARK  284  A    between atoms: _713  and  _714
REMARK                            x       y       z     vdW  Elec       q    Type
REMARK                         _______ _______ _______ _____ _____    ______ ____
ROOT
ATOM      1  C   GLY A   2      33.663  13.423  43.661  0.00  0.00    +0.243 C 
ATOM      2  N   ASP A   3      34.370  12.315  43.639  0.00  0.00    -0.296 N 
ATOM      3  H   ASP A   3      33.881  11.401  43.729  0.00  0.00    +0.150 HD
ATOM      4  O   GLY A   2      34.185  14.512  43.608  0.00  0.00    -0.273 OA
ENDROOT
BRANCH   1   5
ATOM      5  CA  GLY A   2      32.148  13.276  43.716  0.00  0.00    +0.176 C 
BRANCH   5   7
ATOM      6  C   ASN A   1      31.774  13.691  41.345  0.00  0.00    +0.239 C 
ATOM      7  N   GLY A   2      31.483  13.979  42.602  0.00  0.00    -0.296 N 
ATOM      8  H   GLY A   2      30.775  14.712  42.809  0.00  0.00    +0.150 HD
ATOM      9  O   ASN A   1      32.515  12.762  41.031  0.00  0.00    -0.274 OA
BRANCH   6  10
ATOM     10  CA  ASN A   1      31.193  14.588  40.274  0.00  0.00    +0.154 C 
BRANCH  10  11
ATOM     11  N   ASN A   1      32.209  15.603  39.988  0.00  0.00    -0.238 NA
ATOM     12  H   ASN A   1      33.197  15.294  39.892  0.00  0.00    +0.142 HD
ENDBRANCH  10  11
BRANCH  10  13
ATOM     13  CB  ASN A   1      30.951  13.724  39.044  0.00  0.00    +0.111 C 
BRANCH  13  14
ATOM     14  CG  ASN A   1      30.321  14.469  37.905  0.00  0.00    +0.221 C 
ATOM     15  OD1 ASN A   1      29.156  14.279  37.656  0.00  0.00    -0.275 OA
ATOM     16  ND2 ASN A   1      31.101  15.262  37.167  0.00  0.00    -0.329 N 
ATOM     17 HD21 ASN A   1      32.100  15.393  37.424  0.00  0.00    +0.145 HD
ATOM     18 HD22 ASN A   1      30.709  15.749  36.335  0.00  0.00    +0.145 HD
ENDBRANCH  13  14
ENDBRANCH  10  13
ENDBRANCH   6  10
ENDBRANCH   5   7
ENDBRANCH   1   5
BRANCH   2  19
ATOM     19  CA  ASP A   3      35.815  12.331  43.493  0.00  0.00    +0.160 C 
BRANCH  19  20
ATOM     20  C   ASP A   3      36.300  12.530  42.047  0.00  0.00    +0.241 C 
ATOM     21  O   ASP A   3      37.492  12.746  41.820  0.00  0.00    -0.273 OA
ATOM     22  N   ASP A   4      35.406  12.450  41.064  0.00  0.00    -0.298 N 
ATOM     23  H   ASP A   4      34.427  12.167  41.270  0.00  0.00    +0.150 HD
BRANCH  22  24
ATOM     24  CA  ASP A   4      35.807  12.761  39.695  0.00  0.00    +0.148 C 
BRANCH  24  25
ATOM     25  C   ASP A   4      35.957  14.272  39.416  0.00  0.00    +0.227 C 
ATOM     26  O   ASP A   4      35.053  15.061  39.671  0.00  0.00    -0.286 OA
ENDBRANCH  24  25
BRANCH  24  27
ATOM     27  CB  ASP A   4      34.829  12.130  38.700  0.00  0.00    +0.142 C 
BRANCH  27  28
ATOM     28  CG  ASP A   4      35.488  11.848  37.354  0.00  0.00    +0.367 C 
ATOM     29  OD2 ASP A   4      35.854  10.661  37.119  0.00  0.00    -0.246 OA
ATOM     30  OD1 ASP A   4      35.659  12.823  36.565  0.00  0.00    -0.246 OA
ENDBRANCH  27  28
ENDBRANCH  24  27
ENDBRANCH  22  24
ENDBRANCH  19  20
BRANCH  19  31
ATOM     31  CB  ASP A   3      36.385  11.031  44.050  0.00  0.00    +0.143 C 
BRANCH  31  32
ATOM     32  CG  ASP A   3      36.111   9.816  43.145  0.00  0.00    +0.367 C 
ATOM     33  OD2 ASP A   3      36.994   8.933  43.062  0.00  0.00    -0.246 OA
ATOM     34  OD1 ASP A   3      35.034   9.725  42.524  0.00  0.00    -0.246 OA
ENDBRANCH  31  32
ENDBRANCH  19  31
ENDBRANCH   2  19
TORSDOF 14
REMARK  Name = ../refined-set-2016/3gnw/3gnw_pocket.pdb
REMARK  284 active torsions:
REMARK  status: ('A' for Active; 'I' for Inactive)
REMARK    1  A    between atoms: _1  and  _3
REMARK    2  A    between atoms: _3  and  _4
REMARK    3  A    between atoms: _3  and  _6
REMARK    4  A    between atoms: _6  and  _7
REMARK    5  A    between atoms: _7  and  _8
REMARK    6  A    between atoms: _8  and  _9
REMARK    7  A    between atoms: _9  and  _10
REMARK    8  A    between atoms: _14  and  _16
REMARK    9  A    between atoms: _16  and  _17
REMARK   10  A    between atoms: _16  and  _19
REMARK   11  A    between atoms: _19  and  _20
REMARK   12  A    between atoms: _20  and  _21
REMARK   13  A    between atoms: _24  and  _26
REMARK   14  A    between atoms: _26  and  _27
REMARK   15  A    between atoms: _26  and  _29
REMARK   16  A    between atoms: _29  and  _30
REMARK   17  A    between atoms: _36  and  _38
REMARK   18  A    between atoms: _38  and  _39
REMARK   19  A    between atoms: _38  and  _41
REMARK   20  A    between atoms: _41  and  _42
REMARK   21  A    between atoms: _42  and  _43
REMARK   22  A    between atoms: _43  and  _44
REMARK   23  A    between atoms: _53  and  _55
REMARK   24  A    between atoms: _55  and  _56
REMARK   25  A    between atoms: _55  and  _58
REMARK   26  A    between atoms: _58  and  _59
REMARK   27  A    between atoms: _62  and  _64
REMARK   28  A    between atoms: _64  and  _65
REMARK   29  A    between atoms: _67  and  _69
REMARK   30  A    between atoms: _69  and  _70
REMARK   31  A    between atoms: _69  and  _72
REMARK   32  A    between atoms: _72  and  _73
REMARK   33  A    between atoms: _79  and  _81
REMARK   34  A    between atoms: _81  and  _82
REMARK   35  A    between atoms: _81  and  _84
REMARK   36  A    between atoms: _84  and  _85
REMARK   37  A    between atoms: _90  and  _91
REMARK   38  A    between atoms: _93  and  _95
REMARK   39  A    between atoms: _95  and  _96
REMARK   40  A    between atoms: _95  and  _98
REMARK   41  A    between atoms: _98  and  _99
REMARK   42  A    between atoms: _102  and  _103
REMARK   43  A    between atoms: _108  and  _110
REMARK   44  A    between atoms: _110  and  _111
REMARK   45  A    between atoms: _110  and  _113
REMARK   46  A    between atoms: _113  and  _114
REMARK   47  A    between atoms: _114  and  _115
REMARK   48  A    between atoms: _115  and  _116
REMARK   49  A    between atoms: _116  and  _117
REMARK   50  A    between atoms: _121  and  _123
REMARK   51  A    between atoms: _123  and  _124
REMARK   52  A    between atoms: _123  and  _126
REMARK   53  A    between atoms: _126  and  _127
REMARK   54  A    between atoms: _127  and  _128
REMARK   55  A    between atoms: _133  and  _135
REMARK   56  A    between atoms: _135  and  _136
REMARK   57  A    between atoms: _135  and  _138
REMARK   58  A    between atoms: _138  and  _139
REMARK   59  A    between atoms: _139  and  _140
REMARK   60  A    between atoms: _140  and  _141
REMARK   61  A    between atoms: _150  and  _152
REMARK   62  A    between atoms: _152  and  _153
REMARK   63  A    between atoms: _152  and  _155
REMARK   64  A    between atoms: _158  and  _160
REMARK   65  A    between atoms: _160  and  _161
REMARK   66  A    between atoms: _160  and  _163
REMARK   67  A    between atoms: _163  and  _164
REMARK   68  A    between atoms: _167  and  _169
REMARK   69  A    between atoms: _169  and  _170
REMARK   70  A    between atoms: _169  and  _172
REMARK   71  A    between atoms: _172  and  _173
REMARK   72  A    between atoms: _179  and  _181
REMARK   73  A    between atoms: _181  and  _182
REMARK   74  A    between atoms: _181  and  _184
REMARK   75  A    between atoms: _184  and  _185
REMARK   76  A    between atoms: _188  and  _190
REMARK   77  A    between atoms: _190  and  _191
REMARK   78  A    between atoms: _190  and  _193
REMARK   79  A    between atoms: _193  and  _194
REMARK   80  A    between atoms: _196  and  _198
REMARK   81  A    between atoms: _198  and  _199
REMARK   82  A    between atoms: _198  and  _201
REMARK   83  A    between atoms: _201  and  _202
REMARK   84  A    between atoms: _205  and  _207
REMARK   85  A    between atoms: _207  and  _208
REMARK   86  A    between atoms: _207  and  _210
REMARK   87  A    between atoms: _210  and  _211
REMARK   88  A    between atoms: _213  and  _215
REMARK   89  A    between atoms: _215  and  _216
REMARK   90  A    between atoms: _215  and  _218
REMARK   91  A    between atoms: _218  and  _219
REMARK   92  A    between atoms: _224  and  _226
REMARK   93  A    between atoms: _226  and  _227
REMARK   94  A    between atoms: _226  and  _229
REMARK   95  A    between atoms: _229  and  _230
REMARK   96  A    between atoms: _233  and  _235
REMARK   97  A    between atoms: _235  and  _236
REMARK   98  A    between atoms: _235  and  _238
REMARK   99  A    between atoms: _238  and  _239
REMARK  100  A    between atoms: _244  and  _246
REMARK  101  A    between atoms: _246  and  _247
REMARK  102  A    between atoms: _249  and  _251
REMARK  103  A    between atoms: _251  and  _252
REMARK  104  A    between atoms: _251  and  _254
REMARK  105  A    between atoms: _254  and  _255
REMARK  106  A    between atoms: _258  and  _260
REMARK  107  A    between atoms: _260  and  _261
REMARK  108  A    between atoms: _260  and  _263
REMARK  109  A    between atoms: _263  and  _264
REMARK  110  A    between atoms: _267  and  _269
REMARK  111  A    between atoms: _269  and  _270
REMARK  112  A    between atoms: _269  and  _272
REMARK  113  A    between atoms: _272  and  _273
REMARK  114  A    between atoms: _276  and  _278
REMARK  115  A    between atoms: _278  and  _279
REMARK  116  A    between atoms: _278  and  _281
REMARK  117  A    between atoms: _281  and  _282
REMARK  118  A    between atoms: _284  and  _286
REMARK  119  A    between atoms: _286  and  _287
REMARK  120  A    between atoms: _286  and  _289
REMARK  121  A    between atoms: _291  and  _293
REMARK  122  A    between atoms: _293  and  _294
REMARK  123  A    between atoms: _293  and  _296
REMARK  124  A    between atoms: _296  and  _297
REMARK  125  A    between atoms: _299  and  _301
REMARK  126  A    between atoms: _301  and  _302
REMARK  127  A    between atoms: _301  and  _304
REMARK  128  A    between atoms: _304  and  _305
REMARK  129  A    between atoms: _307  and  _309
REMARK  130  A    between atoms: _309  and  _310
REMARK  131  A    between atoms: _309  and  _312
REMARK  132  A    between atoms: _312  and  _313
REMARK  133  A    between atoms: _318  and  _320
REMARK  134  A    between atoms: _320  and  _321
REMARK  135  A    between atoms: _320  and  _323
REMARK  136  A    between atoms: _323  and  _324
REMARK  137  A    between atoms: _329  and  _330
REMARK  138  A    between atoms: _332  and  _334
REMARK  139  A    between atoms: _334  and  _335
REMARK  140  A    between atoms: _334  and  _337
REMARK  141  A    between atoms: _337  and  _338
REMARK  142  A    between atoms: _341  and  _343
REMARK  143  A    between atoms: _343  and  _344
REMARK  144  A    between atoms: _343  and  _346
REMARK  145  A    between atoms: _346  and  _347
REMARK  146  A    between atoms: _350  and  _352
REMARK  147  A    between atoms: _352  and  _353
REMARK  148  A    between atoms: _352  and  _355
REMARK  149  A    between atoms: _355  and  _356
REMARK  150  A    between atoms: _356  and  _357
REMARK  151  A    between atoms: _357  and  _358
REMARK  152  A    between atoms: _367  and  _369
REMARK  153  A    between atoms: _369  and  _370
REMARK  154  A    between atoms: _369  and  _372
REMARK  155  A    between atoms: _372  and  _373
REMARK  156  A    between atoms: _377  and  _378
REMARK  157  A    between atoms: _383  and  _385
REMARK  158  A    between atoms: _385  and  _386
REMARK  159  A    between atoms: _385  and  _388
REMARK  160  A    between atoms: _388  and  _389
REMARK  161  A    between atoms: _389  and  _390
REMARK  162  A    between atoms: _390  and  _391
REMARK  163  A    between atoms: _400  and  _402
REMARK  164  A    between atoms: _402  and  _403
REMARK  165  A    between atoms: _402  and  _405
REMARK  166  A    between atoms: _405  and  _406
REMARK  167  A    between atoms: _406  and  _407
REMARK  168  A    between atoms: _410  and  _412
REMARK  169  A    between atoms: _412  and  _413
REMARK  170  A    between atoms: _412  and  _415
REMARK  171  A    between atoms: _415  and  _416
REMARK  172  A    between atoms: _419  and  _421
REMARK  173  A    between atoms: _421  and  _422
REMARK  174  A    between atoms: _421  and  _424
REMARK  175  A    between atoms: _424  and  _425
REMARK  176  A    between atoms: _430  and  _432
REMARK  177  A    between atoms: _432  and  _433
REMARK  178  A    between atoms: _432  and  _435
REMARK  179  A    between atoms: _435  and  _436
REMARK  180  A    between atoms: _438  and  _440
REMARK  181  A    between atoms: _440  and  _441
REMARK  182  A    between atoms: _440  and  _443
REMARK  183  A    between atoms: _443  and  _444
REMARK  184  A    between atoms: _454  and  _456
REMARK  185  A    between atoms: _456  and  _457
REMARK  186  A    between atoms: _456  and  _459
REMARK  187  A    between atoms: _459  and  _460
REMARK  188  A    between atoms: _463  and  _465
REMARK  189  A    between atoms: _465  and  _466
REMARK  190  A    between atoms: _468  and  _470
REMARK  191  A    between atoms: _470  and  _471
REMARK  192  A    between atoms: _470  and  _473
REMARK  193  A    between atoms: _473  and  _474
REMARK  194  A    between atoms: _479  and  _481
REMARK  195  A    between atoms: _481  and  _482
REMARK  196  A    between atoms: _481  and  _484
REMARK  197  A    between atoms: _484  and  _485
REMARK  198  A    between atoms: _488  and  _490
REMARK  199  A    between atoms: _490  and  _491
REMARK  200  A    between atoms: _490  and  _493
REMARK  201  A    between atoms: _493  and  _494
REMARK  202  A    between atoms: _497  and  _499
REMARK  203  A    between atoms: _499  and  _500
REMARK  204  A    between atoms: _499  and  _502
REMARK  205  A    between atoms: _502  and  _503
REMARK  206  A    between atoms: _503  and  _504
REMARK  207  A    between atoms: _506  and  _508
REMARK  208  A    between atoms: _508  and  _509
REMARK  209  A    between atoms: _508  and  _511
REMARK  210  A    between atoms: _511  and  _512
REMARK  211  A    between atoms: _517  and  _518
REMARK  212  A    between atoms: _520  and  _522
REMARK  213  A    between atoms: _522  and  _523
REMARK  214  A    between atoms: _527  and  _528
REMARK  215  A    between atoms: _533  and  _535
REMARK  216  A    between atoms: _535  and  _536
REMARK  217  A    between atoms: _535  and  _538
REMARK  218  A    between atoms: _538  and  _539
REMARK  219  A    between atoms: _542  and  _544
REMARK  220  A    between atoms: _544  and  _545
REMARK  221  A    between atoms: _544  and  _547
REMARK  222  A    between atoms: _547  and  _548
REMARK  223  A    between atoms: _558  and  _560
REMARK  224  A    between atoms: _560  and  _561
REMARK  225  A    between atoms: _560  and  _563
REMARK  226  A    between atoms: _563  and  _564
REMARK  227  A    between atoms: _567  and  _569
REMARK  228  A    between atoms: _569  and  _570
REMARK  229  A    between atoms: _569  and  _572
REMARK  230  A    between atoms: _574  and  _576
REMARK  231  A    between atoms: _576  and  _577
REMARK  232  A    between atoms: _576  and  _579
REMARK  233  A    between atoms: _579  and  _580
REMARK  234  A    between atoms: _580  and  _581
REMARK  235  A    between atoms: _586  and  _588
REMARK  236  A    between atoms: _588  and  _589
REMARK  237  A    between atoms: _588  and  _591
REMARK  238  A    between atoms: _591  and  _592
REMARK  239  A    between atoms: _595  and  _597
REMARK  240  A    between atoms: _597  and  _598
REMARK  241  A    between atoms: _597  and  _600
REMARK  242  A    between atoms: _600  and  _601
REMARK  243  A    between atoms: _606  and  _607
REMARK  244  A    between atoms: _609  and  _611
REMARK  245  A    between atoms: _611  and  _612
REMARK  246  A    between atoms: _614  and  _616
REMARK  247  A    between atoms: _616  and  _617
REMARK  248  A    between atoms: _620  and  _622
REMARK  249  A    between atoms: _622  and  _623
REMARK  250  A    between atoms: _622  and  _625
REMARK  251  A    between atoms: _627  and  _629
REMARK  252  A    between atoms: _629  and  _630
REMARK  253  A    between atoms: _629  and  _632
REMARK  254  A    between atoms: _632  and  _633
REMARK  255  A    between atoms: _638  and  _639
REMARK  256  A    between atoms: _641  and  _643
REMARK  257  A    between atoms: _643  and  _644
REMARK  258  A    between atoms: _643  and  _646
REMARK  259  A    between atoms: _646  and  _647
REMARK  260  A    between atoms: _650  and  _652
REMARK  261  A    between atoms: _652  and  _653
REMARK  262  A    between atoms: _652  and  _655
REMARK  263  A    between atoms: _655  and  _656
REMARK  264  A    between atoms: _661  and  _663
REMARK  265  A    between atoms: _663  and  _664
REMARK  266  A    between atoms: _663  and  _666
REMARK  267  A    between atoms: _666  and  _667
REMARK  268  A    between atoms: _673  and  _675
REMARK  269  A    between atoms: _675  and  _676
REMARK  270  A    between atoms: _679  and  _681
REMARK  271  A    between atoms: _681  and  _682
REMARK  272  A    between atoms: _684  and  _686
REMARK  273  A    between atoms: _686  and  _687
REMARK  274  A    between atoms: _686  and  _689
REMARK  275  A    between atoms: _689  and  _690
REMARK  276  A    between atoms: _695  and  _696
REMARK  277  A    between atoms: _698  and  _700
REMARK  278  A    between atoms: _700  and  _701
REMARK  279  A    between atoms: _700  and  _703
REMARK  280  A    between atoms: _703  and  _704
REMARK  281  A    between atoms: _706  and  _708
REMARK  282  A    between atoms: _708  and  _709
REMARK  283  A    between atoms: _711  and  _713
REMARK  284  A    between atoms: _713  and  _714
REMARK                            x       y       z     vdW  Elec       q    Type
REMARK                         _______ _______ _______ _____ _____    ______ ____
ROOT
ATOM      1  C   CYS A   3      33.294   8.380  33.959  0.00  0.00    +0.242 C 
ATOM      2  N   SER A   4      34.436   7.837  33.554  0.00  0.00    -0.295 N 
ATOM      3  H   SER A   4      35.297   8.104  34.072  0.00  0.00    +0.150 HD
ATOM      4  O   CYS A   3      32.202   8.082  33.514  0.00  0.00    -0.273 OA
ENDROOT
BRANCH   2   5
ATOM      5  CA  SER A   4      34.591   6.898  32.445  0.00  0.00    +0.178 C 
BRANCH   5   6
ATOM      6  C   SER A   4      34.326   7.479  31.065  0.00  0.00    +0.243 C 
ATOM      7  N   SER A   5      33.799   8.693  30.974  0.00  0.00    -0.295 N 
ATOM      8  H   SER A   5      33.754   9.296  31.820  0.00  0.00    +0.150 HD
ATOM      9  O   SER A   4      34.643   6.831  30.082  0.00  0.00    -0.273 OA
BRANCH   7  10
ATOM     10  CA  SER A   5      33.280   9.197  29.701  0.00  0.00    +0.178 C 
BRANCH  10  11
ATOM     11  C   SER A   5      34.153  10.255  29.004  0.00  0.00    +0.243 C 
ATOM     12  O   SER A   5      34.834  11.038  29.660  0.00  0.00    -0.273 OA
ATOM     13  N   ASN A   6      34.107  10.259  27.665  0.00  0.00    -0.298 N 
ATOM     14  H   ASN A   6      33.625   9.474  27.183  0.00  0.00    +0.150 HD
BRANCH  13  15
ATOM     15  CA  ASN A   6      34.703  11.315  26.852  0.00  0.00    +0.146 C 
BRANCH  15  16
ATOM     16  C   ASN A   6      33.759  11.897  25.815  0.00  0.00    +0.227 C 
ATOM     17  O   ASN A   6      32.834  11.229  25.340  0.00  0.00    -0.286 OA
ENDBRANCH  15  16
BRANCH  15  18
ATOM     18  CB  ASN A   6      35.957  10.826  26.135  0.00  0.00    +0.112 C 
BRANCH  18  19
ATOM     19  CG  ASN A   6      35.665   9.802  25.052  0.00  0.00    +0.222 C 
ATOM     20  OD1 ASN A   6      35.471   8.622  25.351  0.00  0.00    -0.275 OA
ATOM     21  ND2 ASN A   6      35.669  10.237  23.789  0.00  0.00    -0.329 N 
ATOM     22 HD21 ASN A   6      35.837  11.243  23.586  0.00  0.00    +0.145 HD
ATOM     23 HD22 ASN A   6      35.504   9.570  23.009  0.00  0.00    +0.145 HD
ENDBRANCH  18  19
ENDBRANCH  15  18
ENDBRANCH  13  15
ENDBRANCH  10  11
BRANCH  10  24
ATOM     24  CB  SER A   5      31.865   9.740  29.894  0.00  0.00    +0.166 C 
BRANCH  24  25
ATOM     25  OG  SER A   5      31.888  11.038  30.443  0.00  0.00    -0.380 OA
ATOM     26  H   SER A   5      32.341  11.015  31.323  0.00  0.00    +0.211 HD
ENDBRANCH  24  25
ENDBRANCH  10  24
ENDBRANCH   7  10
ENDBRANCH   5   6
BRANCH   5  27
ATOM     27  CB  SER A   4      33.741   5.633  32.645  0.00  0.00    +0.166 C 
BRANCH  27  28
ATOM     28  OG  SER A   4      33.979   5.086  33.922  0.00  0.00    -0.380 OA
ATOM     29  H   SER A   4      33.427   4.273  34.039  0.00  0.00    +0.211 HD
ENDBRANCH  27  28
ENDBRANCH   5  27
ENDBRANCH   2   5
BRANCH   1  30
ATOM     30  CA  CYS A   3      33.431   9.448  35.050  0.00  0.00    +0.160 C 
BRANCH  30  32
ATOM     31  C   SER A   2      34.218  11.165  33.486  0.00  0.00    +0.243 C 
ATOM     32  N   CYS A   3      34.371  10.490  34.625  0.00  0.00    -0.296 N 
ATOM     33  H   CYS A   3      35.185  10.710  35.233  0.00  0.00    +0.150 HD
ATOM     34  O   SER A   2      33.347  10.893  32.655  0.00  0.00    -0.273 OA
BRANCH  31  35
ATOM     35  CA  SER A   2      35.216  12.280  33.200  0.00  0.00    +0.178 C 
BRANCH  35  38
ATOM     36  C   THR A   1      37.223  11.773  31.828  0.00  0.00    +0.241 C 
ATOM     37  O   THR A   1      38.011  12.099  32.697  0.00  0.00    -0.274 OA
ATOM     38  N   SER A   2      35.902  11.824  31.987  0.00  0.00    -0.295 N 
ATOM     39  H   SER A   2      35.311  11.516  31.189  0.00  0.00    +0.150 HD
BRANCH  36  40
ATOM     40  CA  THR A   1      37.711  11.368  30.419  0.00  0.00    +0.172 C 
BRANCH  40  41
ATOM     41  CB  THR A   1      38.070   9.851  30.287  0.00  0.00    +0.135 C 
ATOM     42  CG2 THR A   1      39.138   9.602  29.212  0.00  0.00    +0.034 C 
BRANCH  41  43
ATOM     43  OG1 THR A   1      38.521   9.332  31.522  0.00  0.00    -0.383 OA
ATOM     44  HG1 THR A   1      38.742   8.373  31.415  0.00  0.00    +0.210 HD
ENDBRANCH  41  43
ENDBRANCH  40  41
BRANCH  40  45
ATOM     45  N   THR A   1      38.786  12.249  29.936  0.00  0.00    -0.236 NA
ATOM     46  H   THR A   1      39.713  12.229  30.407  0.00  0.00    +0.142 HD
ENDBRANCH  40  45
ENDBRANCH  36  40
ENDBRANCH  35  38
BRANCH  35  47
ATOM     47  CB  SER A   2      34.504  13.635  32.922  0.00  0.00    +0.166 C 
BRANCH  47  48
ATOM     48  OG  SER A   2      33.428  14.015  33.835  0.00  0.00    -0.380 OA
ATOM     49  H   SER A   2      33.787  14.085  34.755  0.00  0.00    +0.211 HD
ENDBRANCH  47  48
ENDBRANCH  35  47
ENDBRANCH  31  35
ENDBRANCH  30  32
BRANCH  30  50
ATOM     50  CB  CYS A   3      32.049  10.032  35.364  0.00  0.00    +0.098 C 
ATOM     51  SG  CYS A   3      31.956  11.258  36.672  0.00  0.00    -0.080 S 
ENDBRANCH  30  50
ENDBRANCH   1  30
TORSDOF 23
REMARK  Name = ../refined-set-2016/3gnw/3gnw_pocket.pdb
REMARK  284 active torsions:
REMARK  status: ('A' for Active; 'I' for Inactive)
REMARK    1  A    between atoms: _1  and  _3
REMARK    2  A    between atoms: _3  and  _4
REMARK    3  A    between atoms: _3  and  _6
REMARK    4  A    between atoms: _6  and  _7
REMARK    5  A    between atoms: _7  and  _8
REMARK    6  A    between atoms: _8  and  _9
REMARK    7  A    between atoms: _9  and  _10
REMARK    8  A    between atoms: _14  and  _16
REMARK    9  A    between atoms: _16  and  _17
REMARK   10  A    between atoms: _16  and  _19
REMARK   11  A    between atoms: _19  and  _20
REMARK   12  A    between atoms: _20  and  _21
REMARK   13  A    between atoms: _24  and  _26
REMARK   14  A    between atoms: _26  and  _27
REMARK   15  A    between atoms: _26  and  _29
REMARK   16  A    between atoms: _29  and  _30
REMARK   17  A    between atoms: _36  and  _38
REMARK   18  A    between atoms: _38  and  _39
REMARK   19  A    between atoms: _38  and  _41
REMARK   20  A    between atoms: _41  and  _42
REMARK   21  A    between atoms: _42  and  _43
REMARK   22  A    between atoms: _43  and  _44
REMARK   23  A    between atoms: _53  and  _55
REMARK   24  A    between atoms: _55  and  _56
REMARK   25  A    between atoms: _55  and  _58
REMARK   26  A    between atoms: _58  and  _59
REMARK   27  A    between atoms: _62  and  _64
REMARK   28  A    between atoms: _64  and  _65
REMARK   29  A    between atoms: _67  and  _69
REMARK   30  A    between atoms: _69  and  _70
REMARK   31  A    between atoms: _69  and  _72
REMARK   32  A    between atoms: _72  and  _73
REMARK   33  A    between atoms: _79  and  _81
REMARK   34  A    between atoms: _81  and  _82
REMARK   35  A    between atoms: _81  and  _84
REMARK   36  A    between atoms: _84  and  _85
REMARK   37  A    between atoms: _90  and  _91
REMARK   38  A    between atoms: _93  and  _95
REMARK   39  A    between atoms: _95  and  _96
REMARK   40  A    between atoms: _95  and  _98
REMARK   41  A    between atoms: _98  and  _99
REMARK   42  A    between atoms: _102  and  _103
REMARK   43  A    between atoms: _108  and  _110
REMARK   44  A    between atoms: _110  and  _111
REMARK   45  A    between atoms: _110  and  _113
REMARK   46  A    between atoms: _113  and  _114
REMARK   47  A    between atoms: _114  and  _115
REMARK   48  A    between atoms: _115  and  _116
REMARK   49  A    between atoms: _116  and  _117
REMARK   50  A    between atoms: _121  and  _123
REMARK   51  A    between atoms: _123  and  _124
REMARK   52  A    between atoms: _123  and  _126
REMARK   53  A    between atoms: _126  and  _127
REMARK   54  A    between atoms: _127  and  _128
REMARK   55  A    between atoms: _133  and  _135
REMARK   56  A    between atoms: _135  and  _136
REMARK   57  A    between atoms: _135  and  _138
REMARK   58  A    between atoms: _138  and  _139
REMARK   59  A    between atoms: _139  and  _140
REMARK   60  A    between atoms: _140  and  _141
REMARK   61  A    between atoms: _150  and  _152
REMARK   62  A    between atoms: _152  and  _153
REMARK   63  A    between atoms: _152  and  _155
REMARK   64  A    between atoms: _158  and  _160
REMARK   65  A    between atoms: _160  and  _161
REMARK   66  A    between atoms: _160  and  _163
REMARK   67  A    between atoms: _163  and  _164
REMARK   68  A    between atoms: _167  and  _169
REMARK   69  A    between atoms: _169  and  _170
REMARK   70  A    between atoms: _169  and  _172
REMARK   71  A    between atoms: _172  and  _173
REMARK   72  A    between atoms: _179  and  _181
REMARK   73  A    between atoms: _181  and  _182
REMARK   74  A    between atoms: _181  and  _184
REMARK   75  A    between atoms: _184  and  _185
REMARK   76  A    between atoms: _188  and  _190
REMARK   77  A    between atoms: _190  and  _191
REMARK   78  A    between atoms: _190  and  _193
REMARK   79  A    between atoms: _193  and  _194
REMARK   80  A    between atoms: _196  and  _198
REMARK   81  A    between atoms: _198  and  _199
REMARK   82  A    between atoms: _198  and  _201
REMARK   83  A    between atoms: _201  and  _202
REMARK   84  A    between atoms: _205  and  _207
REMARK   85  A    between atoms: _207  and  _208
REMARK   86  A    between atoms: _207  and  _210
REMARK   87  A    between atoms: _210  and  _211
REMARK   88  A    between atoms: _213  and  _215
REMARK   89  A    between atoms: _215  and  _216
REMARK   90  A    between atoms: _215  and  _218
REMARK   91  A    between atoms: _218  and  _219
REMARK   92  A    between atoms: _224  and  _226
REMARK   93  A    between atoms: _226  and  _227
REMARK   94  A    between atoms: _226  and  _229
REMARK   95  A    between atoms: _229  and  _230
REMARK   96  A    between atoms: _233  and  _235
REMARK   97  A    between atoms: _235  and  _236
REMARK   98  A    between atoms: _235  and  _238
REMARK   99  A    between atoms: _238  and  _239
REMARK  100  A    between atoms: _244  and  _246
REMARK  101  A    between atoms: _246  and  _247
REMARK  102  A    between atoms: _249  and  _251
REMARK  103  A    between atoms: _251  and  _252
REMARK  104  A    between atoms: _251  and  _254
REMARK  105  A    between atoms: _254  and  _255
REMARK  106  A    between atoms: _258  and  _260
REMARK  107  A    between atoms: _260  and  _261
REMARK  108  A    between atoms: _260  and  _263
REMARK  109  A    between atoms: _263  and  _264
REMARK  110  A    between atoms: _267  and  _269
REMARK  111  A    between atoms: _269  and  _270
REMARK  112  A    between atoms: _269  and  _272
REMARK  113  A    between atoms: _272  and  _273
REMARK  114  A    between atoms: _276  and  _278
REMARK  115  A    between atoms: _278  and  _279
REMARK  116  A    between atoms: _278  and  _281
REMARK  117  A    between atoms: _281  and  _282
REMARK  118  A    between atoms: _284  and  _286
REMARK  119  A    between atoms: _286  and  _287
REMARK  120  A    between atoms: _286  and  _289
REMARK  121  A    between atoms: _291  and  _293
REMARK  122  A    between atoms: _293  and  _294
REMARK  123  A    between atoms: _293  and  _296
REMARK  124  A    between atoms: _296  and  _297
REMARK  125  A    between atoms: _299  and  _301
REMARK  126  A    between atoms: _301  and  _302
REMARK  127  A    between atoms: _301  and  _304
REMARK  128  A    between atoms: _304  and  _305
REMARK  129  A    between atoms: _307  and  _309
REMARK  130  A    between atoms: _309  and  _310
REMARK  131  A    between atoms: _309  and  _312
REMARK  132  A    between atoms: _312  and  _313
REMARK  133  A    between atoms: _318  and  _320
REMARK  134  A    between atoms: _320  and  _321
REMARK  135  A    between atoms: _320  and  _323
REMARK  136  A    between atoms: _323  and  _324
REMARK  137  A    between atoms: _329  and  _330
REMARK  138  A    between atoms: _332  and  _334
REMARK  139  A    between atoms: _334  and  _335
REMARK  140  A    between atoms: _334  and  _337
REMARK  141  A    between atoms: _337  and  _338
REMARK  142  A    between atoms: _341  and  _343
REMARK  143  A    between atoms: _343  and  _344
REMARK  144  A    between atoms: _343  and  _346
REMARK  145  A    between atoms: _346  and  _347
REMARK  146  A    between atoms: _350  and  _352
REMARK  147  A    between atoms: _352  and  _353
REMARK  148  A    between atoms: _352  and  _355
REMARK  149  A    between atoms: _355  and  _356
REMARK  150  A    between atoms: _356  and  _357
REMARK  151  A    between atoms: _357  and  _358
REMARK  152  A    between atoms: _367  and  _369
REMARK  153  A    between atoms: _369  and  _370
REMARK  154  A    between atoms: _369  and  _372
REMARK  155  A    between atoms: _372  and  _373
REMARK  156  A    between atoms: _377  and  _378
REMARK  157  A    between atoms: _383  and  _385
REMARK  158  A    between atoms: _385  and  _386
REMARK  159  A    between atoms: _385  and  _388
REMARK  160  A    between atoms: _388  and  _389
REMARK  161  A    between atoms: _389  and  _390
REMARK  162  A    between atoms: _390  and  _391
REMARK  163  A    between atoms: _400  and  _402
REMARK  164  A    between atoms: _402  and  _403
REMARK  165  A    between atoms: _402  and  _405
REMARK  166  A    between atoms: _405  and  _406
REMARK  167  A    between atoms: _406  and  _407
REMARK  168  A    between atoms: _410  and  _412
REMARK  169  A    between atoms: _412  and  _413
REMARK  170  A    between atoms: _412  and  _415
REMARK  171  A    between atoms: _415  and  _416
REMARK  172  A    between atoms: _419  and  _421
REMARK  173  A    between atoms: _421  and  _422
REMARK  174  A    between atoms: _421  and  _424
REMARK  175  A    between atoms: _424  and  _425
REMARK  176  A    between atoms: _430  and  _432
REMARK  177  A    between atoms: _432  and  _433
REMARK  178  A    between atoms: _432  and  _435
REMARK  179  A    between atoms: _435  and  _436
REMARK  180  A    between atoms: _438  and  _440
REMARK  181  A    between atoms: _440  and  _441
REMARK  182  A    between atoms: _440  and  _443
REMARK  183  A    between atoms: _443  and  _444
REMARK  184  A    between atoms: _454  and  _456
REMARK  185  A    between atoms: _456  and  _457
REMARK  186  A    between atoms: _456  and  _459
REMARK  187  A    between atoms: _459  and  _460
REMARK  188  A    between atoms: _463  and  _465
REMARK  189  A    between atoms: _465  and  _466
REMARK  190  A    between atoms: _468  and  _470
REMARK  191  A    between atoms: _470  and  _471
REMARK  192  A    between atoms: _470  and  _473
REMARK  193  A    between atoms: _473  and  _474
REMARK  194  A    between atoms: _479  and  _481
REMARK  195  A    between atoms: _481  and  _482
REMARK  196  A    between atoms: _481  and  _484
REMARK  197  A    between atoms: _484  and  _485
REMARK  198  A    between atoms: _488  and  _490
REMARK  199  A    between atoms: _490  and  _491
REMARK  200  A    between atoms: _490  and  _493
REMARK  201  A    between atoms: _493  and  _494
REMARK  202  A    between atoms: _497  and  _499
REMARK  203  A    between atoms: _499  and  _500
REMARK  204  A    between atoms: _499  and  _502
REMARK  205  A    between atoms: _502  and  _503
REMARK  206  A    between atoms: _503  and  _504
REMARK  207  A    between atoms: _506  and  _508
REMARK  208  A    between atoms: _508  and  _509
REMARK  209  A    between atoms: _508  and  _511
REMARK  210  A    between atoms: _511  and  _512
REMARK  211  A    between atoms: _517  and  _518
REMARK  212  A    between atoms: _520  and  _522
REMARK  213  A    between atoms: _522  and  _523
REMARK  214  A    between atoms: _527  and  _528
REMARK  215  A    between atoms: _533  and  _535
REMARK  216  A    between atoms: _535  and  _536
REMARK  217  A    between atoms: _535  and  _538
REMARK  218  A    between atoms: _538  and  _539
REMARK  219  A    between atoms: _542  and  _544
REMARK  220  A    between atoms: _544  and  _545
REMARK  221  A    between atoms: _544  and  _547
REMARK  222  A    between atoms: _547  and  _548
REMARK  223  A    between atoms: _558  and  _560
REMARK  224  A    between atoms: _560  and  _561
REMARK  225  A    between atoms: _560  and  _563
REMARK  226  A    between atoms: _563  and  _564
REMARK  227  A    between atoms: _567  and  _569
REMARK  228  A    between atoms: _569  and  _570
REMARK  229  A    between atoms: _569  and  _572
REMARK  230  A    between atoms: _574  and  _576
REMARK  231  A    between atoms: _576  and  _577
REMARK  232  A    between atoms: _576  and  _579
REMARK  233  A    between atoms: _579  and  _580
REMARK  234  A    between atoms: _580  and  _581
REMARK  235  A    between atoms: _586  and  _588
REMARK  236  A    between atoms: _588  and  _589
REMARK  237  A    between atoms: _588  and  _591
REMARK  238  A    between atoms: _591  and  _592
REMARK  239  A    between atoms: _595  and  _597
REMARK  240  A    between atoms: _597  and  _598
REMARK  241  A    between atoms: _597  and  _600
REMARK  242  A    between atoms: _600  and  _601
REMARK  243  A    between atoms: _606  and  _607
REMARK  244  A    between atoms: _609  and  _611
REMARK  245  A    between atoms: _611  and  _612
REMARK  246  A    between atoms: _614  and  _616
REMARK  247  A    between atoms: _616  and  _617
REMARK  248  A    between atoms: _620  and  _622
REMARK  249  A    between atoms: _622  and  _623
REMARK  250  A    between atoms: _622  and  _625
REMARK  251  A    between atoms: _627  and  _629
REMARK  252  A    between atoms: _629  and  _630
REMARK  253  A    between atoms: _629  and  _632
REMARK  254  A    between atoms: _632  and  _633
REMARK  255  A    between atoms: _638  and  _639
REMARK  256  A    between atoms: _641  and  _643
REMARK  257  A    between atoms: _643  and  _644
REMARK  258  A    between atoms: _643  and  _646
REMARK  259  A    between atoms: _646  and  _647
REMARK  260  A    between atoms: _650  and  _652
REMARK  261  A    between atoms: _652  and  _653
REMARK  262  A    between atoms: _652  and  _655
REMARK  263  A    between atoms: _655  and  _656
REMARK  264  A    between atoms: _661  and  _663
REMARK  265  A    between atoms: _663  and  _664
REMARK  266  A    between atoms: _663  and  _666
REMARK  267  A    between atoms: _666  and  _667
REMARK  268  A    between atoms: _673  and  _675
REMARK  269  A    between atoms: _675  and  _676
REMARK  270  A    between atoms: _679  and  _681
REMARK  271  A    between atoms: _681  and  _682
REMARK  272  A    between atoms: _684  and  _686
REMARK  273  A    between atoms: _686  and  _687
REMARK  274  A    between atoms: _686  and  _689
REMARK  275  A    between atoms: _689  and  _690
REMARK  276  A    between atoms: _695  and  _696
REMARK  277  A    between atoms: _698  and  _700
REMARK  278  A    between atoms: _700  and  _701
REMARK  279  A    between atoms: _700  and  _703
REMARK  280  A    between atoms: _703  and  _704
REMARK  281  A    between atoms: _706  and  _708
REMARK  282  A    between atoms: _708  and  _709
REMARK  283  A    between atoms: _711  and  _713
REMARK  284  A    between atoms: _713  and  _714
REMARK                            x       y       z     vdW  Elec       q    Type
REMARK                         _______ _______ _______ _____ _____    ______ ____
ROOT
ATOM      1  C   LEU A   2      29.398   9.764  25.261  0.00  0.00    +0.241 C 
ATOM      2  N   THR A   3      30.612   9.215  25.275  0.00  0.00    -0.295 N 
ATOM      3  H   THR A   3      31.430   9.840  25.425  0.00  0.00    +0.150 HD
ATOM      4  O   LEU A   2      28.348   9.152  25.029  0.00  0.00    -0.273 OA
ENDROOT
BRANCH   2   5
ATOM      5  CA  THR A   3      30.860   7.798  25.093  0.00  0.00    +0.176 C 
BRANCH   5   6
ATOM      6  C   THR A   3      31.935   7.330  26.103  0.00  0.00    +0.243 C 
ATOM      7  O   THR A   3      32.403   8.100  26.944  0.00  0.00    -0.273 OA
ATOM      8  N   ARG A   4      32.312   6.062  26.007  0.00  0.00    -0.298 N 
ATOM      9  H   ARG A   4      31.902   5.476  25.252  0.00  0.00    +0.150 HD
BRANCH   8  10
ATOM     10  CA  ARG A   4      33.270   5.459  26.908  0.00  0.00    +0.137 C 
BRANCH  10  11
ATOM     11  C   ARG A   4      33.704   4.149  26.262  0.00  0.00    +0.227 C 
ATOM     12  O   ARG A   4      33.031   3.647  25.359  0.00  0.00    -0.286 OA
ENDBRANCH  10  11
BRANCH  10  13
ATOM     13  CB  ARG A   4      32.630   5.189  28.277  0.00  0.00    +0.031 C 
BRANCH  13  14
ATOM     14  CG  ARG A   4      31.402   4.256  28.207  0.00  0.00    +0.045 C 
BRANCH  14  15
ATOM     15  CD  ARG A   4      31.129   3.607  29.529  0.00  0.00    +0.174 C 
BRANCH  15  16
ATOM     16  NE  ARG A   4      32.302   2.863  29.956  0.00  0.00    -0.265 N 
ATOM     17  CZ  ARG A   4      32.601   2.545  31.215  0.00  0.00    +0.342 C 
ATOM     18  NH2 ARG A   4      31.798   2.867  32.236  0.00  0.00    -0.292 N 
ATOM     19 HH21 ARG A   4      32.061   2.604  33.207  0.00  0.00    +0.255 HD
ATOM     20 HH22 ARG A   4      30.911   3.380  32.058  0.00  0.00    +0.255 HD
ATOM     21  NH1 ARG A   4      33.719   1.899  31.443  0.00  0.00    -0.292 N 
ATOM     22 HH11 ARG A   4      33.979   1.637  32.415  0.00  0.00    +0.255 HD
ATOM     23 HH12 ARG A   4      34.345   1.648  30.652  0.00  0.00    +0.255 HD
ATOM     24  HE  ARG A   4      32.964   2.553  29.216  0.00  0.00    +0.259 HD
ENDBRANCH  15  16
ENDBRANCH  14  15
ENDBRANCH  13  14
ENDBRANCH  10  13
ENDBRANCH   8  10
ENDBRANCH   5   6
BRANCH   5  25
ATOM     25  CB  THR A   3      31.284   7.510  23.618  0.00  0.00    +0.137 C 
ATOM     26  CG2 THR A   3      32.558   8.228  23.262  0.00  0.00    +0.034 C 
BRANCH  25  27
ATOM     27  OG1 THR A   3      31.495   6.117  23.410  0.00  0.00    -0.382 OA
ATOM     28  HG1 THR A   3      31.762   5.962  22.469  0.00  0.00    +0.210 HD
ENDBRANCH  25  27
ENDBRANCH   5  25
ENDBRANCH   2   5
BRANCH   1  29
ATOM     29  CA  LEU A   2      29.372  11.252  25.542  0.00  0.00    +0.149 C 
BRANCH  29  31
ATOM     30  C   TYR A   1      28.921  12.562  23.517  0.00  0.00    +0.239 C 
ATOM     31  N   LEU A   2      28.472  11.924  24.596  0.00  0.00    -0.297 N 
ATOM     32  H   LEU A   2      27.448  11.901  24.775  0.00  0.00    +0.150 HD
ATOM     33  O   TYR A   1      30.118  12.687  23.233  0.00  0.00    -0.274 OA
BRANCH  30  34
ATOM     34  CA  TYR A   1      27.869  13.180  22.630  0.00  0.00    +0.149 C 
BRANCH  34  35
ATOM     35  N   TYR A   1      28.566  14.145  21.747  0.00  0.00    -0.238 NA
ATOM     36  H   TYR A   1      29.581  14.023  21.556  0.00  0.00    +0.142 HD
ENDBRANCH  34  35
BRANCH  34  37
ATOM     37  CB  TYR A   1      27.086  12.118  21.816  0.00  0.00    +0.053 C 
BRANCH  37  38
ATOM     38  CG  TYR A   1      27.984  11.134  21.092  0.00  0.00    -0.020 A 
ATOM     39  CD2 TYR A   1      28.241   9.863  21.634  0.00  0.00    -0.001 A 
ATOM     40  CE2 TYR A   1      29.090   8.986  21.007  0.00  0.00    +0.036 A 
ATOM     41  CZ  TYR A   1      29.710   9.357  19.827  0.00  0.00    +0.134 A 
ATOM     42  CE1 TYR A   1      29.480  10.601  19.257  0.00  0.00    +0.036 A 
ATOM     43  CD1 TYR A   1      28.619  11.487  19.890  0.00  0.00    -0.001 A 
BRANCH  41  44
ATOM     44  OH  TYR A   1      30.552   8.464  19.235  0.00  0.00    -0.506 OA
ATOM     45  HH  TYR A   1      30.921   8.860  18.406  0.00  0.00    +0.292 HD
ENDBRANCH  41  44
ENDBRANCH  37  38
ENDBRANCH  34  37
ENDBRANCH  30  34
ENDBRANCH  29  31
BRANCH  29  46
ATOM     46  CB  LEU A   2      28.958  11.498  26.997  0.00  0.00    +0.029 C 
BRANCH  46  47
ATOM     47  CG  LEU A   2      29.175  12.956  27.430  0.00  0.00    +0.002 C 
ATOM     48  CD2 LEU A   2      28.397  13.302  28.668  0.00  0.00    +0.000 C 
ATOM     49  CD1 LEU A   2      30.651  13.255  27.649  0.00  0.00    +0.000 C 
ENDBRANCH  46  47
ENDBRANCH  29  46
ENDBRANCH   1  29
TORSDOF 19
REMARK  Name = ../refined-set-2016/3gnw/3gnw_pocket.pdb
REMARK  284 active torsions:
REMARK  status: ('A' for Active; 'I' for Inactive)
REMARK    1  A    between atoms: _1  and  _3
REMARK    2  A    between atoms: _3  and  _4
REMARK    3  A    between atoms: _3  and  _6
REMARK    4  A    between atoms: _6  and  _7
REMARK    5  A    between atoms: _7  and  _8
REMARK    6  A    between atoms: _8  and  _9
REMARK    7  A    between atoms: _9  and  _10
REMARK    8  A    between atoms: _14  and  _16
REMARK    9  A    between atoms: _16  and  _17
REMARK   10  A    between atoms: _16  and  _19
REMARK   11  A    between atoms: _19  and  _20
REMARK   12  A    between atoms: _20  and  _21
REMARK   13  A    between atoms: _24  and  _26
REMARK   14  A    between atoms: _26  and  _27
REMARK   15  A    between atoms: _26  and  _29
REMARK   16  A    between atoms: _29  and  _30
REMARK   17  A    between atoms: _36  and  _38
REMARK   18  A    between atoms: _38  and  _39
REMARK   19  A    between atoms: _38  and  _41
REMARK   20  A    between atoms: _41  and  _42
REMARK   21  A    between atoms: _42  and  _43
REMARK   22  A    between atoms: _43  and  _44
REMARK   23  A    between atoms: _53  and  _55
REMARK   24  A    between atoms: _55  and  _56
REMARK   25  A    between atoms: _55  and  _58
REMARK   26  A    between atoms: _58  and  _59
REMARK   27  A    between atoms: _62  and  _64
REMARK   28  A    between atoms: _64  and  _65
REMARK   29  A    between atoms: _67  and  _69
REMARK   30  A    between atoms: _69  and  _70
REMARK   31  A    between atoms: _69  and  _72
REMARK   32  A    between atoms: _72  and  _73
REMARK   33  A    between atoms: _79  and  _81
REMARK   34  A    between atoms: _81  and  _82
REMARK   35  A    between atoms: _81  and  _84
REMARK   36  A    between atoms: _84  and  _85
REMARK   37  A    between atoms: _90  and  _91
REMARK   38  A    between atoms: _93  and  _95
REMARK   39  A    between atoms: _95  and  _96
REMARK   40  A    between atoms: _95  and  _98
REMARK   41  A    between atoms: _98  and  _99
REMARK   42  A    between atoms: _102  and  _103
REMARK   43  A    between atoms: _108  and  _110
REMARK   44  A    between atoms: _110  and  _111
REMARK   45  A    between atoms: _110  and  _113
REMARK   46  A    between atoms: _113  and  _114
REMARK   47  A    between atoms: _114  and  _115
REMARK   48  A    between atoms: _115  and  _116
REMARK   49  A    between atoms: _116  and  _117
REMARK   50  A    between atoms: _121  and  _123
REMARK   51  A    between atoms: _123  and  _124
REMARK   52  A    between atoms: _123  and  _126
REMARK   53  A    between atoms: _126  and  _127
REMARK   54  A    between atoms: _127  and  _128
REMARK   55  A    between atoms: _133  and  _135
REMARK   56  A    between atoms: _135  and  _136
REMARK   57  A    between atoms: _135  and  _138
REMARK   58  A    between atoms: _138  and  _139
REMARK   59  A    between atoms: _139  and  _140
REMARK   60  A    between atoms: _140  and  _141
REMARK   61  A    between atoms: _150  and  _152
REMARK   62  A    between atoms: _152  and  _153
REMARK   63  A    between atoms: _152  and  _155
REMARK   64  A    between atoms: _158  and  _160
REMARK   65  A    between atoms: _160  and  _161
REMARK   66  A    between atoms: _160  and  _163
REMARK   67  A    between atoms: _163  and  _164
REMARK   68  A    between atoms: _167  and  _169
REMARK   69  A    between atoms: _169  and  _170
REMARK   70  A    between atoms: _169  and  _172
REMARK   71  A    between atoms: _172  and  _173
REMARK   72  A    between atoms: _179  and  _181
REMARK   73  A    between atoms: _181  and  _182
REMARK   74  A    between atoms: _181  and  _184
REMARK   75  A    between atoms: _184  and  _185
REMARK   76  A    between atoms: _188  and  _190
REMARK   77  A    between atoms: _190  and  _191
REMARK   78  A    between atoms: _190  and  _193
REMARK   79  A    between atoms: _193  and  _194
REMARK   80  A    between atoms: _196  and  _198
REMARK   81  A    between atoms: _198  and  _199
REMARK   82  A    between atoms: _198  and  _201
REMARK   83  A    between atoms: _201  and  _202
REMARK   84  A    between atoms: _205  and  _207
REMARK   85  A    between atoms: _207  and  _208
REMARK   86  A    between atoms: _207  and  _210
REMARK   87  A    between atoms: _210  and  _211
REMARK   88  A    between atoms: _213  and  _215
REMARK   89  A    between atoms: _215  and  _216
REMARK   90  A    between atoms: _215  and  _218
REMARK   91  A    between atoms: _218  and  _219
REMARK   92  A    between atoms: _224  and  _226
REMARK   93  A    between atoms: _226  and  _227
REMARK   94  A    between atoms: _226  and  _229
REMARK   95  A    between atoms: _229  and  _230
REMARK   96  A    between atoms: _233  and  _235
REMARK   97  A    between atoms: _235  and  _236
REMARK   98  A    between atoms: _235  and  _238
REMARK   99  A    between atoms: _238  and  _239
REMARK  100  A    between atoms: _244  and  _246
REMARK  101  A    between atoms: _246  and  _247
REMARK  102  A    between atoms: _249  and  _251
REMARK  103  A    between atoms: _251  and  _252
REMARK  104  A    between atoms: _251  and  _254
REMARK  105  A    between atoms: _254  and  _255
REMARK  106  A    between atoms: _258  and  _260
REMARK  107  A    between atoms: _260  and  _261
REMARK  108  A    between atoms: _260  and  _263
REMARK  109  A    between atoms: _263  and  _264
REMARK  110  A    between atoms: _267  and  _269
REMARK  111  A    between atoms: _269  and  _270
REMARK  112  A    between atoms: _269  and  _272
REMARK  113  A    between atoms: _272  and  _273
REMARK  114  A    between atoms: _276  and  _278
REMARK  115  A    between atoms: _278  and  _279
REMARK  116  A    between atoms: _278  and  _281
REMARK  117  A    between atoms: _281  and  _282
REMARK  118  A    between atoms: _284  and  _286
REMARK  119  A    between atoms: _286  and  _287
REMARK  120  A    between atoms: _286  and  _289
REMARK  121  A    between atoms: _291  and  _293
REMARK  122  A    between atoms: _293  and  _294
REMARK  123  A    between atoms: _293  and  _296
REMARK  124  A    between atoms: _296  and  _297
REMARK  125  A    between atoms: _299  and  _301
REMARK  126  A    between atoms: _301  and  _302
REMARK  127  A    between atoms: _301  and  _304
REMARK  128  A    between atoms: _304  and  _305
REMARK  129  A    between atoms: _307  and  _309
REMARK  130  A    between atoms: _309  and  _310
REMARK  131  A    between atoms: _309  and  _312
REMARK  132  A    between atoms: _312  and  _313
REMARK  133  A    between atoms: _318  and  _320
REMARK  134  A    between atoms: _320  and  _321
REMARK  135  A    between atoms: _320  and  _323
REMARK  136  A    between atoms: _323  and  _324
REMARK  137  A    between atoms: _329  and  _330
REMARK  138  A    between atoms: _332  and  _334
REMARK  139  A    between atoms: _334  and  _335
REMARK  140  A    between atoms: _334  and  _337
REMARK  141  A    between atoms: _337  and  _338
REMARK  142  A    between atoms: _341  and  _343
REMARK  143  A    between atoms: _343  and  _344
REMARK  144  A    between atoms: _343  and  _346
REMARK  145  A    between atoms: _346  and  _347
REMARK  146  A    between atoms: _350  and  _352
REMARK  147  A    between atoms: _352  and  _353
REMARK  148  A    between atoms: _352  and  _355
REMARK  149  A    between atoms: _355  and  _356
REMARK  150  A    between atoms: _356  and  _357
REMARK  151  A    between atoms: _357  and  _358
REMARK  152  A    between atoms: _367  and  _369
REMARK  153  A    between atoms: _369  and  _370
REMARK  154  A    between atoms: _369  and  _372
REMARK  155  A    between atoms: _372  and  _373
REMARK  156  A    between atoms: _377  and  _378
REMARK  157  A    between atoms: _383  and  _385
REMARK  158  A    between atoms: _385  and  _386
REMARK  159  A    between atoms: _385  and  _388
REMARK  160  A    between atoms: _388  and  _389
REMARK  161  A    between atoms: _389  and  _390
REMARK  162  A    between atoms: _390  and  _391
REMARK  163  A    between atoms: _400  and  _402
REMARK  164  A    between atoms: _402  and  _403
REMARK  165  A    between atoms: _402  and  _405
REMARK  166  A    between atoms: _405  and  _406
REMARK  167  A    between atoms: _406  and  _407
REMARK  168  A    between atoms: _410  and  _412
REMARK  169  A    between atoms: _412  and  _413
REMARK  170  A    between atoms: _412  and  _415
REMARK  171  A    between atoms: _415  and  _416
REMARK  172  A    between atoms: _419  and  _421
REMARK  173  A    between atoms: _421  and  _422
REMARK  174  A    between atoms: _421  and  _424
REMARK  175  A    between atoms: _424  and  _425
REMARK  176  A    between atoms: _430  and  _432
REMARK  177  A    between atoms: _432  and  _433
REMARK  178  A    between atoms: _432  and  _435
REMARK  179  A    between atoms: _435  and  _436
REMARK  180  A    between atoms: _438  and  _440
REMARK  181  A    between atoms: _440  and  _441
REMARK  182  A    between atoms: _440  and  _443
REMARK  183  A    between atoms: _443  and  _444
REMARK  184  A    between atoms: _454  and  _456
REMARK  185  A    between atoms: _456  and  _457
REMARK  186  A    between atoms: _456  and  _459
REMARK  187  A    between atoms: _459  and  _460
REMARK  188  A    between atoms: _463  and  _465
REMARK  189  A    between atoms: _465  and  _466
REMARK  190  A    between atoms: _468  and  _470
REMARK  191  A    between atoms: _470  and  _471
REMARK  192  A    between atoms: _470  and  _473
REMARK  193  A    between atoms: _473  and  _474
REMARK  194  A    between atoms: _479  and  _481
REMARK  195  A    between atoms: _481  and  _482
REMARK  196  A    between atoms: _481  and  _484
REMARK  197  A    between atoms: _484  and  _485
REMARK  198  A    between atoms: _488  and  _490
REMARK  199  A    between atoms: _490  and  _491
REMARK  200  A    between atoms: _490  and  _493
REMARK  201  A    between atoms: _493  and  _494
REMARK  202  A    between atoms: _497  and  _499
REMARK  203  A    between atoms: _499  and  _500
REMARK  204  A    between atoms: _499  and  _502
REMARK  205  A    between atoms: _502  and  _503
REMARK  206  A    between atoms: _503  and  _504
REMARK  207  A    between atoms: _506  and  _508
REMARK  208  A    between atoms: _508  and  _509
REMARK  209  A    between atoms: _508  and  _511
REMARK  210  A    between atoms: _511  and  _512
REMARK  211  A    between atoms: _517  and  _518
REMARK  212  A    between atoms: _520  and  _522
REMARK  213  A    between atoms: _522  and  _523
REMARK  214  A    between atoms: _527  and  _528
REMARK  215  A    between atoms: _533  and  _535
REMARK  216  A    between atoms: _535  and  _536
REMARK  217  A    between atoms: _535  and  _538
REMARK  218  A    between atoms: _538  and  _539
REMARK  219  A    between atoms: _542  and  _544
REMARK  220  A    between atoms: _544  and  _545
REMARK  221  A    between atoms: _544  and  _547
REMARK  222  A    between atoms: _547  and  _548
REMARK  223  A    between atoms: _558  and  _560
REMARK  224  A    between atoms: _560  and  _561
REMARK  225  A    between atoms: _560  and  _563
REMARK  226  A    between atoms: _563  and  _564
REMARK  227  A    between atoms: _567  and  _569
REMARK  228  A    between atoms: _569  and  _570
REMARK  229  A    between atoms: _569  and  _572
REMARK  230  A    between atoms: _574  and  _576
REMARK  231  A    between atoms: _576  and  _577
REMARK  232  A    between atoms: _576  and  _579
REMARK  233  A    between atoms: _579  and  _580
REMARK  234  A    between atoms: _580  and  _581
REMARK  235  A    between atoms: _586  and  _588
REMARK  236  A    between atoms: _588  and  _589
REMARK  237  A    between atoms: _588  and  _591
REMARK  238  A    between atoms: _591  and  _592
REMARK  239  A    between atoms: _595  and  _597
REMARK  240  A    between atoms: _597  and  _598
REMARK  241  A    between atoms: _597  and  _600
REMARK  242  A    between atoms: _600  and  _601
REMARK  243  A    between atoms: _606  and  _607
REMARK  244  A    between atoms: _609  and  _611
REMARK  245  A    between atoms: _611  and  _612
REMARK  246  A    between atoms: _614  and  _616
REMARK  247  A    between atoms: _616  and  _617
REMARK  248  A    between atoms: _620  and  _622
REMARK  249  A    between atoms: _622  and  _623
REMARK  250  A    between atoms: _622  and  _625
REMARK  251  A    between atoms: _627  and  _629
REMARK  252  A    between atoms: _629  and  _630
REMARK  253  A    between atoms: _629  and  _632
REMARK  254  A    between atoms: _632  and  _633
REMARK  255  A    between atoms: _638  and  _639
REMARK  256  A    between atoms: _641  and  _643
REMARK  257  A    between atoms: _643  and  _644
REMARK  258  A    between atoms: _643  and  _646
REMARK  259  A    between atoms: _646  and  _647
REMARK  260  A    between atoms: _650  and  _652
REMARK  261  A    between atoms: _652  and  _653
REMARK  262  A    between atoms: _652  and  _655
REMARK  263  A    between atoms: _655  and  _656
REMARK  264  A    between atoms: _661  and  _663
REMARK  265  A    between atoms: _663  and  _664
REMARK  266  A    between atoms: _663  and  _666
REMARK  267  A    between atoms: _666  and  _667
REMARK  268  A    between atoms: _673  and  _675
REMARK  269  A    between atoms: _675  and  _676
REMARK  270  A    between atoms: _679  and  _681
REMARK  271  A    between atoms: _681  and  _682
REMARK  272  A    between atoms: _684  and  _686
REMARK  273  A    between atoms: _686  and  _687
REMARK  274  A    between atoms: _686  and  _689
REMARK  275  A    between atoms: _689  and  _690
REMARK  276  A    between atoms: _695  and  _696
REMARK  277  A    between atoms: _698  and  _700
REMARK  278  A    between atoms: _700  and  _701
REMARK  279  A    between atoms: _700  and  _703
REMARK  280  A    between atoms: _703  and  _704
REMARK  281  A    between atoms: _706  and  _708
REMARK  282  A    between atoms: _708  and  _709
REMARK  283  A    between atoms: _711  and  _713
REMARK  284  A    between atoms: _713  and  _714
REMARK                            x       y       z     vdW  Elec       q    Type
REMARK                         _______ _______ _______ _____ _____    ______ ____
ROOT
ATOM      1  C   THR A   1      31.428  -3.091  30.982  0.00  0.00    +0.244 C 
ATOM      2  O   THR A   1      30.788  -4.044  31.470  0.00  0.00    -0.273 OA
ATOM      3  N   PRO A   2      30.837  -2.092  30.316  0.00  0.00    -0.273 N 
ATOM      4  CA  PRO A   2      29.425  -2.233  29.973  0.00  0.00    +0.140 C 
ATOM      5  CB  PRO A   2      29.159  -1.033  29.034  0.00  0.00    +0.030 C 
ATOM      6  CG  PRO A   2      30.085  -0.038  29.417  0.00  0.00    +0.024 C 
ATOM      7  CD  PRO A   2      31.344  -0.768  29.913  0.00  0.00    +0.094 C 
ENDROOT
BRANCH   4   8
ATOM      8  C   PRO A   2      29.090  -3.565  29.294  0.00  0.00    +0.227 C 
ATOM      9  O   PRO A   2      28.129  -4.204  29.690  0.00  0.00    -0.286 OA
ENDBRANCH   4   8
BRANCH   1  10
ATOM     10  CA  THR A   1      32.937  -3.019  31.153  0.00  0.00    +0.172 C 
BRANCH  10  11
ATOM     11  N   THR A   1      33.607  -2.712  29.903  0.00  0.00    -0.236 NA
ATOM     12  H   THR A   1      34.019  -1.767  29.767  0.00  0.00    +0.142 HD
ENDBRANCH  10  11
BRANCH  10  13
ATOM     13  CB  THR A   1      33.375  -2.029  32.298  0.00  0.00    +0.135 C 
ATOM     14  CG2 THR A   1      32.699  -2.388  33.604  0.00  0.00    +0.034 C 
BRANCH  13  15
ATOM     15  OG1 THR A   1      34.791  -2.138  32.496  0.00  0.00    -0.383 OA
ATOM     16  HG1 THR A   1      35.016  -3.067  32.754  0.00  0.00    +0.210 HD
ENDBRANCH  13  15
ENDBRANCH  10  13
ENDBRANCH   1  10
TORSDOF 5
REMARK  Name = ../refined-set-2016/3gnw/3gnw_pocket.pdb
REMARK  284 active torsions:
REMARK  status: ('A' for Active; 'I' for Inactive)
REMARK    1  A    between atoms: _1  and  _3
REMARK    2  A    between atoms: _3  and  _4
REMARK    3  A    between atoms: _3  and  _6
REMARK    4  A    between atoms: _6  and  _7
REMARK    5  A    between atoms: _7  and  _8
REMARK    6  A    between atoms: _8  and  _9
REMARK    7  A    between atoms: _9  and  _10
REMARK    8  A    between atoms: _14  and  _16
REMARK    9  A    between atoms: _16  and  _17
REMARK   10  A    between atoms: _16  and  _19
REMARK   11  A    between atoms: _19  and  _20
REMARK   12  A    between atoms: _20  and  _21
REMARK   13  A    between atoms: _24  and  _26
REMARK   14  A    between atoms: _26  and  _27
REMARK   15  A    between atoms: _26  and  _29
REMARK   16  A    between atoms: _29  and  _30
REMARK   17  A    between atoms: _36  and  _38
REMARK   18  A    between atoms: _38  and  _39
REMARK   19  A    between atoms: _38  and  _41
REMARK   20  A    between atoms: _41  and  _42
REMARK   21  A    between atoms: _42  and  _43
REMARK   22  A    between atoms: _43  and  _44
REMARK   23  A    between atoms: _53  and  _55
REMARK   24  A    between atoms: _55  and  _56
REMARK   25  A    between atoms: _55  and  _58
REMARK   26  A    between atoms: _58  and  _59
REMARK   27  A    between atoms: _62  and  _64
REMARK   28  A    between atoms: _64  and  _65
REMARK   29  A    between atoms: _67  and  _69
REMARK   30  A    between atoms: _69  and  _70
REMARK   31  A    between atoms: _69  and  _72
REMARK   32  A    between atoms: _72  and  _73
REMARK   33  A    between atoms: _79  and  _81
REMARK   34  A    between atoms: _81  and  _82
REMARK   35  A    between atoms: _81  and  _84
REMARK   36  A    between atoms: _84  and  _85
REMARK   37  A    between atoms: _90  and  _91
REMARK   38  A    between atoms: _93  and  _95
REMARK   39  A    between atoms: _95  and  _96
REMARK   40  A    between atoms: _95  and  _98
REMARK   41  A    between atoms: _98  and  _99
REMARK   42  A    between atoms: _102  and  _103
REMARK   43  A    between atoms: _108  and  _110
REMARK   44  A    between atoms: _110  and  _111
REMARK   45  A    between atoms: _110  and  _113
REMARK   46  A    between atoms: _113  and  _114
REMARK   47  A    between atoms: _114  and  _115
REMARK   48  A    between atoms: _115  and  _116
REMARK   49  A    between atoms: _116  and  _117
REMARK   50  A    between atoms: _121  and  _123
REMARK   51  A    between atoms: _123  and  _124
REMARK   52  A    between atoms: _123  and  _126
REMARK   53  A    between atoms: _126  and  _127
REMARK   54  A    between atoms: _127  and  _128
REMARK   55  A    between atoms: _133  and  _135
REMARK   56  A    between atoms: _135  and  _136
REMARK   57  A    between atoms: _135  and  _138
REMARK   58  A    between atoms: _138  and  _139
REMARK   59  A    between atoms: _139  and  _140
REMARK   60  A    between atoms: _140  and  _141
REMARK   61  A    between atoms: _150  and  _152
REMARK   62  A    between atoms: _152  and  _153
REMARK   63  A    between atoms: _152  and  _155
REMARK   64  A    between atoms: _158  and  _160
REMARK   65  A    between atoms: _160  and  _161
REMARK   66  A    between atoms: _160  and  _163
REMARK   67  A    between atoms: _163  and  _164
REMARK   68  A    between atoms: _167  and  _169
REMARK   69  A    between atoms: _169  and  _170
REMARK   70  A    between atoms: _169  and  _172
REMARK   71  A    between atoms: _172  and  _173
REMARK   72  A    between atoms: _179  and  _181
REMARK   73  A    between atoms: _181  and  _182
REMARK   74  A    between atoms: _181  and  _184
REMARK   75  A    between atoms: _184  and  _185
REMARK   76  A    between atoms: _188  and  _190
REMARK   77  A    between atoms: _190  and  _191
REMARK   78  A    between atoms: _190  and  _193
REMARK   79  A    between atoms: _193  and  _194
REMARK   80  A    between atoms: _196  and  _198
REMARK   81  A    between atoms: _198  and  _199
REMARK   82  A    between atoms: _198  and  _201
REMARK   83  A    between atoms: _201  and  _202
REMARK   84  A    between atoms: _205  and  _207
REMARK   85  A    between atoms: _207  and  _208
REMARK   86  A    between atoms: _207  and  _210
REMARK   87  A    between atoms: _210  and  _211
REMARK   88  A    between atoms: _213  and  _215
REMARK   89  A    between atoms: _215  and  _216
REMARK   90  A    between atoms: _215  and  _218
REMARK   91  A    between atoms: _218  and  _219
REMARK   92  A    between atoms: _224  and  _226
REMARK   93  A    between atoms: _226  and  _227
REMARK   94  A    between atoms: _226  and  _229
REMARK   95  A    between atoms: _229  and  _230
REMARK   96  A    between atoms: _233  and  _235
REMARK   97  A    between atoms: _235  and  _236
REMARK   98  A    between atoms: _235  and  _238
REMARK   99  A    between atoms: _238  and  _239
REMARK  100  A    between atoms: _244  and  _246
REMARK  101  A    between atoms: _246  and  _247
REMARK  102  A    between atoms: _249  and  _251
REMARK  103  A    between atoms: _251  and  _252
REMARK  104  A    between atoms: _251  and  _254
REMARK  105  A    between atoms: _254  and  _255
REMARK  106  A    between atoms: _258  and  _260
REMARK  107  A    between atoms: _260  and  _261
REMARK  108  A    between atoms: _260  and  _263
REMARK  109  A    between atoms: _263  and  _264
REMARK  110  A    between atoms: _267  and  _269
REMARK  111  A    between atoms: _269  and  _270
REMARK  112  A    between atoms: _269  and  _272
REMARK  113  A    between atoms: _272  and  _273
REMARK  114  A    between atoms: _276  and  _278
REMARK  115  A    between atoms: _278  and  _279
REMARK  116  A    between atoms: _278  and  _281
REMARK  117  A    between atoms: _281  and  _282
REMARK  118  A    between atoms: _284  and  _286
REMARK  119  A    between atoms: _286  and  _287
REMARK  120  A    between atoms: _286  and  _289
REMARK  121  A    between atoms: _291  and  _293
REMARK  122  A    between atoms: _293  and  _294
REMARK  123  A    between atoms: _293  and  _296
REMARK  124  A    between atoms: _296  and  _297
REMARK  125  A    between atoms: _299  and  _301
REMARK  126  A    between atoms: _301  and  _302
REMARK  127  A    between atoms: _301  and  _304
REMARK  128  A    between atoms: _304  and  _305
REMARK  129  A    between atoms: _307  and  _309
REMARK  130  A    between atoms: _309  and  _310
REMARK  131  A    between atoms: _309  and  _312
REMARK  132  A    between atoms: _312  and  _313
REMARK  133  A    between atoms: _318  and  _320
REMARK  134  A    between atoms: _320  and  _321
REMARK  135  A    between atoms: _320  and  _323
REMARK  136  A    between atoms: _323  and  _324
REMARK  137  A    between atoms: _329  and  _330
REMARK  138  A    between atoms: _332  and  _334
REMARK  139  A    between atoms: _334  and  _335
REMARK  140  A    between atoms: _334  and  _337
REMARK  141  A    between atoms: _337  and  _338
REMARK  142  A    between atoms: _341  and  _343
REMARK  143  A    between atoms: _343  and  _344
REMARK  144  A    between atoms: _343  and  _346
REMARK  145  A    between atoms: _346  and  _347
REMARK  146  A    between atoms: _350  and  _352
REMARK  147  A    between atoms: _352  and  _353
REMARK  148  A    between atoms: _352  and  _355
REMARK  149  A    between atoms: _355  and  _356
REMARK  150  A    between atoms: _356  and  _357
REMARK  151  A    between atoms: _357  and  _358
REMARK  152  A    between atoms: _367  and  _369
REMARK  153  A    between atoms: _369  and  _370
REMARK  154  A    between atoms: _369  and  _372
REMARK  155  A    between atoms: _372  and  _373
REMARK  156  A    between atoms: _377  and  _378
REMARK  157  A    between atoms: _383  and  _385
REMARK  158  A    between atoms: _385  and  _386
REMARK  159  A    between atoms: _385  and  _388
REMARK  160  A    between atoms: _388  and  _389
REMARK  161  A    between atoms: _389  and  _390
REMARK  162  A    between atoms: _390  and  _391
REMARK  163  A    between atoms: _400  and  _402
REMARK  164  A    between atoms: _402  and  _403
REMARK  165  A    between atoms: _402  and  _405
REMARK  166  A    between atoms: _405  and  _406
REMARK  167  A    between atoms: _406  and  _407
REMARK  168  A    between atoms: _410  and  _412
REMARK  169  A    between atoms: _412  and  _413
REMARK  170  A    between atoms: _412  and  _415
REMARK  171  A    between atoms: _415  and  _416
REMARK  172  A    between atoms: _419  and  _421
REMARK  173  A    between atoms: _421  and  _422
REMARK  174  A    between atoms: _421  and  _424
REMARK  175  A    between atoms: _424  and  _425
REMARK  176  A    between atoms: _430  and  _432
REMARK  177  A    between atoms: _432  and  _433
REMARK  178  A    between atoms: _432  and  _435
REMARK  179  A    between atoms: _435  and  _436
REMARK  180  A    between atoms: _438  and  _440
REMARK  181  A    between atoms: _440  and  _441
REMARK  182  A    between atoms: _440  and  _443
REMARK  183  A    between atoms: _443  and  _444
REMARK  184  A    between atoms: _454  and  _456
REMARK  185  A    between atoms: _456  and  _457
REMARK  186  A    between atoms: _456  and  _459
REMARK  187  A    between atoms: _459  and  _460
REMARK  188  A    between atoms: _463  and  _465
REMARK  189  A    between atoms: _465  and  _466
REMARK  190  A    between atoms: _468  and  _470
REMARK  191  A    between atoms: _470  and  _471
REMARK  192  A    between atoms: _470  and  _473
REMARK  193  A    between atoms: _473  and  _474
REMARK  194  A    between atoms: _479  and  _481
REMARK  195  A    between atoms: _481  and  _482
REMARK  196  A    between atoms: _481  and  _484
REMARK  197  A    between atoms: _484  and  _485
REMARK  198  A    between atoms: _488  and  _490
REMARK  199  A    between atoms: _490  and  _491
REMARK  200  A    between atoms: _490  and  _493
REMARK  201  A    between atoms: _493  and  _494
REMARK  202  A    between atoms: _497  and  _499
REMARK  203  A    between atoms: _499  and  _500
REMARK  204  A    between atoms: _499  and  _502
REMARK  205  A    between atoms: _502  and  _503
REMARK  206  A    between atoms: _503  and  _504
REMARK  207  A    between atoms: _506  and  _508
REMARK  208  A    between atoms: _508  and  _509
REMARK  209  A    between atoms: _508  and  _511
REMARK  210  A    between atoms: _511  and  _512
REMARK  211  A    between atoms: _517  and  _518
REMARK  212  A    between atoms: _520  and  _522
REMARK  213  A    between atoms: _522  and  _523
REMARK  214  A    between atoms: _527  and  _528
REMARK  215  A    between atoms: _533  and  _535
REMARK  216  A    between atoms: _535  and  _536
REMARK  217  A    between atoms: _535  and  _538
REMARK  218  A    between atoms: _538  and  _539
REMARK  219  A    between atoms: _542  and  _544
REMARK  220  A    between atoms: _544  and  _545
REMARK  221  A    between atoms: _544  and  _547
REMARK  222  A    between atoms: _547  and  _548
REMARK  223  A    between atoms: _558  and  _560
REMARK  224  A    between atoms: _560  and  _561
REMARK  225  A    between atoms: _560  and  _563
REMARK  226  A    between atoms: _563  and  _564
REMARK  227  A    between atoms: _567  and  _569
REMARK  228  A    between atoms: _569  and  _570
REMARK  229  A    between atoms: _569  and  _572
REMARK  230  A    between atoms: _574  and  _576
REMARK  231  A    between atoms: _576  and  _577
REMARK  232  A    between atoms: _576  and  _579
REMARK  233  A    between atoms: _579  and  _580
REMARK  234  A    between atoms: _580  and  _581
REMARK  235  A    between atoms: _586  and  _588
REMARK  236  A    between atoms: _588  and  _589
REMARK  237  A    between atoms: _588  and  _591
REMARK  238  A    between atoms: _591  and  _592
REMARK  239  A    between atoms: _595  and  _597
REMARK  240  A    between atoms: _597  and  _598
REMARK  241  A    between atoms: _597  and  _600
REMARK  242  A    between atoms: _600  and  _601
REMARK  243  A    between atoms: _606  and  _607
REMARK  244  A    between atoms: _609  and  _611
REMARK  245  A    between atoms: _611  and  _612
REMARK  246  A    between atoms: _614  and  _616
REMARK  247  A    between atoms: _616  and  _617
REMARK  248  A    between atoms: _620  and  _622
REMARK  249  A    between atoms: _622  and  _623
REMARK  250  A    between atoms: _622  and  _625
REMARK  251  A    between atoms: _627  and  _629
REMARK  252  A    between atoms: _629  and  _630
REMARK  253  A    between atoms: _629  and  _632
REMARK  254  A    between atoms: _632  and  _633
REMARK  255  A    between atoms: _638  and  _639
REMARK  256  A    between atoms: _641  and  _643
REMARK  257  A    between atoms: _643  and  _644
REMARK  258  A    between atoms: _643  and  _646
REMARK  259  A    between atoms: _646  and  _647
REMARK  260  A    between atoms: _650  and  _652
REMARK  261  A    between atoms: _652  and  _653
REMARK  262  A    between atoms: _652  and  _655
REMARK  263  A    between atoms: _655  and  _656
REMARK  264  A    between atoms: _661  and  _663
REMARK  265  A    between atoms: _663  and  _664
REMARK  266  A    between atoms: _663  and  _666
REMARK  267  A    between atoms: _666  and  _667
REMARK  268  A    between atoms: _673  and  _675
REMARK  269  A    between atoms: _675  and  _676
REMARK  270  A    between atoms: _679  and  _681
REMARK  271  A    between atoms: _681  and  _682
REMARK  272  A    between atoms: _684  and  _686
REMARK  273  A    between atoms: _686  and  _687
REMARK  274  A    between atoms: _686  and  _689
REMARK  275  A    between atoms: _689  and  _690
REMARK  276  A    between atoms: _695  and  _696
REMARK  277  A    between atoms: _698  and  _700
REMARK  278  A    between atoms: _700  and  _701
REMARK  279  A    between atoms: _700  and  _703
REMARK  280  A    between atoms: _703  and  _704
REMARK  281  A    between atoms: _706  and  _708
REMARK  282  A    between atoms: _708  and  _709
REMARK  283  A    between atoms: _711  and  _713
REMARK  284  A    between atoms: _713  and  _714
REMARK                            x       y       z     vdW  Elec       q    Type
REMARK                         _______ _______ _______ _____ _____    ______ ____
ROOT
ATOM      1  NE  ARG A   1      30.605  -3.565  35.851  0.00  0.00    -0.265 N 
ATOM      2  CZ  ARG A   1      31.051  -2.542  36.571  0.00  0.00    +0.342 C 
ATOM      3  NH2 ARG A   1      32.113  -2.691  37.363  0.00  0.00    -0.292 N 
ATOM      4 HH21 ARG A   1      32.459  -1.887  37.925  0.00  0.00    +0.255 HD
ATOM      5 HH22 ARG A   1      32.595  -3.611  37.419  0.00  0.00    +0.255 HD
ATOM      6  NH1 ARG A   1      30.433  -1.392  36.536  0.00  0.00    -0.292 N 
ATOM      7 HH11 ARG A   1      30.787  -0.594  37.102  0.00  0.00    +0.255 HD
ATOM      8 HH12 ARG A   1      29.587  -1.274  35.942  0.00  0.00    +0.255 HD
ATOM      9  HE  ARG A   1      31.114  -4.467  35.940  0.00  0.00    +0.259 HD
ENDROOT
BRANCH   1  10
ATOM     10  CD  ARG A   1      29.453  -3.531  34.939  0.00  0.00    +0.174 C 
BRANCH  10  11
ATOM     11  CG  ARG A   1      29.391  -4.864  34.227  0.00  0.00    +0.045 C 
BRANCH  11  12
ATOM     12  CB  ARG A   1      28.216  -5.136  33.364  0.00  0.00    +0.029 C 
BRANCH  12  13
ATOM     13  CA  ARG A   1      28.352  -6.547  32.728  0.00  0.00    +0.133 C 
BRANCH  13  14
ATOM     14  N   ARG A   1      29.493  -6.619  31.794  0.00  0.00    -0.239 NA
ATOM     15  H   ARG A   1      29.969  -5.733  31.529  0.00  0.00    +0.142 HD
ENDBRANCH  13  14
BRANCH  13  16
ATOM     16  C   ARG A   1      27.047  -6.976  32.085  0.00  0.00    +0.224 C 
ATOM     17  O   ARG A   1      26.273  -7.704  32.706  0.00  0.00    -0.287 OA
ENDBRANCH  13  16
ENDBRANCH  12  13
ENDBRANCH  11  12
ENDBRANCH  10  11
ENDBRANCH   1  10
TORSDOF 6
REMARK  Name = ../refined-set-2016/3gnw/3gnw_pocket.pdb
REMARK  284 active torsions:
REMARK  status: ('A' for Active; 'I' for Inactive)
REMARK    1  A    between atoms: _1  and  _3
REMARK    2  A    between atoms: _3  and  _4
REMARK    3  A    between atoms: _3  and  _6
REMARK    4  A    between atoms: _6  and  _7
REMARK    5  A    between atoms: _7  and  _8
REMARK    6  A    between atoms: _8  and  _9
REMARK    7  A    between atoms: _9  and  _10
REMARK    8  A    between atoms: _14  and  _16
REMARK    9  A    between atoms: _16  and  _17
REMARK   10  A    between atoms: _16  and  _19
REMARK   11  A    between atoms: _19  and  _20
REMARK   12  A    between atoms: _20  and  _21
REMARK   13  A    between atoms: _24  and  _26
REMARK   14  A    between atoms: _26  and  _27
REMARK   15  A    between atoms: _26  and  _29
REMARK   16  A    between atoms: _29  and  _30
REMARK   17  A    between atoms: _36  and  _38
REMARK   18  A    between atoms: _38  and  _39
REMARK   19  A    between atoms: _38  and  _41
REMARK   20  A    between atoms: _41  and  _42
REMARK   21  A    between atoms: _42  and  _43
REMARK   22  A    between atoms: _43  and  _44
REMARK   23  A    between atoms: _53  and  _55
REMARK   24  A    between atoms: _55  and  _56
REMARK   25  A    between atoms: _55  and  _58
REMARK   26  A    between atoms: _58  and  _59
REMARK   27  A    between atoms: _62  and  _64
REMARK   28  A    between atoms: _64  and  _65
REMARK   29  A    between atoms: _67  and  _69
REMARK   30  A    between atoms: _69  and  _70
REMARK   31  A    between atoms: _69  and  _72
REMARK   32  A    between atoms: _72  and  _73
REMARK   33  A    between atoms: _79  and  _81
REMARK   34  A    between atoms: _81  and  _82
REMARK   35  A    between atoms: _81  and  _84
REMARK   36  A    between atoms: _84  and  _85
REMARK   37  A    between atoms: _90  and  _91
REMARK   38  A    between atoms: _93  and  _95
REMARK   39  A    between atoms: _95  and  _96
REMARK   40  A    between atoms: _95  and  _98
REMARK   41  A    between atoms: _98  and  _99
REMARK   42  A    between atoms: _102  and  _103
REMARK   43  A    between atoms: _108  and  _110
REMARK   44  A    between atoms: _110  and  _111
REMARK   45  A    between atoms: _110  and  _113
REMARK   46  A    between atoms: _113  and  _114
REMARK   47  A    between atoms: _114  and  _115
REMARK   48  A    between atoms: _115  and  _116
REMARK   49  A    between atoms: _116  and  _117
REMARK   50  A    between atoms: _121  and  _123
REMARK   51  A    between atoms: _123  and  _124
REMARK   52  A    between atoms: _123  and  _126
REMARK   53  A    between atoms: _126  and  _127
REMARK   54  A    between atoms: _127  and  _128
REMARK   55  A    between atoms: _133  and  _135
REMARK   56  A    between atoms: _135  and  _136
REMARK   57  A    between atoms: _135  and  _138
REMARK   58  A    between atoms: _138  and  _139
REMARK   59  A    between atoms: _139  and  _140
REMARK   60  A    between atoms: _140  and  _141
REMARK   61  A    between atoms: _150  and  _152
REMARK   62  A    between atoms: _152  and  _153
REMARK   63  A    between atoms: _152  and  _155
REMARK   64  A    between atoms: _158  and  _160
REMARK   65  A    between atoms: _160  and  _161
REMARK   66  A    between atoms: _160  and  _163
REMARK   67  A    between atoms: _163  and  _164
REMARK   68  A    between atoms: _167  and  _169
REMARK   69  A    between atoms: _169  and  _170
REMARK   70  A    between atoms: _169  and  _172
REMARK   71  A    between atoms: _172  and  _173
REMARK   72  A    between atoms: _179  and  _181
REMARK   73  A    between atoms: _181  and  _182
REMARK   74  A    between atoms: _181  and  _184
REMARK   75  A    between atoms: _184  and  _185
REMARK   76  A    between atoms: _188  and  _190
REMARK   77  A    between atoms: _190  and  _191
REMARK   78  A    between atoms: _190  and  _193
REMARK   79  A    between atoms: _193  and  _194
REMARK   80  A    between atoms: _196  and  _198
REMARK   81  A    between atoms: _198  and  _199
REMARK   82  A    between atoms: _198  and  _201
REMARK   83  A    between atoms: _201  and  _202
REMARK   84  A    between atoms: _205  and  _207
REMARK   85  A    between atoms: _207  and  _208
REMARK   86  A    between atoms: _207  and  _210
REMARK   87  A    between atoms: _210  and  _211
REMARK   88  A    between atoms: _213  and  _215
REMARK   89  A    between atoms: _215  and  _216
REMARK   90  A    between atoms: _215  and  _218
REMARK   91  A    between atoms: _218  and  _219
REMARK   92  A    between atoms: _224  and  _226
REMARK   93  A    between atoms: _226  and  _227
REMARK   94  A    between atoms: _226  and  _229
REMARK   95  A    between atoms: _229  and  _230
REMARK   96  A    between atoms: _233  and  _235
REMARK   97  A    between atoms: _235  and  _236
REMARK   98  A    between atoms: _235  and  _238
REMARK   99  A    between atoms: _238  and  _239
REMARK  100  A    between atoms: _244  and  _246
REMARK  101  A    between atoms: _246  and  _247
REMARK  102  A    between atoms: _249  and  _251
REMARK  103  A    between atoms: _251  and  _252
REMARK  104  A    between atoms: _251  and  _254
REMARK  105  A    between atoms: _254  and  _255
REMARK  106  A    between atoms: _258  and  _260
REMARK  107  A    between atoms: _260  and  _261
REMARK  108  A    between atoms: _260  and  _263
REMARK  109  A    between atoms: _263  and  _264
REMARK  110  A    between atoms: _267  and  _269
REMARK  111  A    between atoms: _269  and  _270
REMARK  112  A    between atoms: _269  and  _272
REMARK  113  A    between atoms: _272  and  _273
REMARK  114  A    between atoms: _276  and  _278
REMARK  115  A    between atoms: _278  and  _279
REMARK  116  A    between atoms: _278  and  _281
REMARK  117  A    between atoms: _281  and  _282
REMARK  118  A    between atoms: _284  and  _286
REMARK  119  A    between atoms: _286  and  _287
REMARK  120  A    between atoms: _286  and  _289
REMARK  121  A    between atoms: _291  and  _293
REMARK  122  A    between atoms: _293  and  _294
REMARK  123  A    between atoms: _293  and  _296
REMARK  124  A    between atoms: _296  and  _297
REMARK  125  A    between atoms: _299  and  _301
REMARK  126  A    between atoms: _301  and  _302
REMARK  127  A    between atoms: _301  and  _304
REMARK  128  A    between atoms: _304  and  _305
REMARK  129  A    between atoms: _307  and  _309
REMARK  130  A    between atoms: _309  and  _310
REMARK  131  A    between atoms: _309  and  _312
REMARK  132  A    between atoms: _312  and  _313
REMARK  133  A    between atoms: _318  and  _320
REMARK  134  A    between atoms: _320  and  _321
REMARK  135  A    between atoms: _320  and  _323
REMARK  136  A    between atoms: _323  and  _324
REMARK  137  A    between atoms: _329  and  _330
REMARK  138  A    between atoms: _332  and  _334
REMARK  139  A    between atoms: _334  and  _335
REMARK  140  A    between atoms: _334  and  _337
REMARK  141  A    between atoms: _337  and  _338
REMARK  142  A    between atoms: _341  and  _343
REMARK  143  A    between atoms: _343  and  _344
REMARK  144  A    between atoms: _343  and  _346
REMARK  145  A    between atoms: _346  and  _347
REMARK  146  A    between atoms: _350  and  _352
REMARK  147  A    between atoms: _352  and  _353
REMARK  148  A    between atoms: _352  and  _355
REMARK  149  A    between atoms: _355  and  _356
REMARK  150  A    between atoms: _356  and  _357
REMARK  151  A    between atoms: _357  and  _358
REMARK  152  A    between atoms: _367  and  _369
REMARK  153  A    between atoms: _369  and  _370
REMARK  154  A    between atoms: _369  and  _372
REMARK  155  A    between atoms: _372  and  _373
REMARK  156  A    between atoms: _377  and  _378
REMARK  157  A    between atoms: _383  and  _385
REMARK  158  A    between atoms: _385  and  _386
REMARK  159  A    between atoms: _385  and  _388
REMARK  160  A    between atoms: _388  and  _389
REMARK  161  A    between atoms: _389  and  _390
REMARK  162  A    between atoms: _390  and  _391
REMARK  163  A    between atoms: _400  and  _402
REMARK  164  A    between atoms: _402  and  _403
REMARK  165  A    between atoms: _402  and  _405
REMARK  166  A    between atoms: _405  and  _406
REMARK  167  A    between atoms: _406  and  _407
REMARK  168  A    between atoms: _410  and  _412
REMARK  169  A    between atoms: _412  and  _413
REMARK  170  A    between atoms: _412  and  _415
REMARK  171  A    between atoms: _415  and  _416
REMARK  172  A    between atoms: _419  and  _421
REMARK  173  A    between atoms: _421  and  _422
REMARK  174  A    between atoms: _421  and  _424
REMARK  175  A    between atoms: _424  and  _425
REMARK  176  A    between atoms: _430  and  _432
REMARK  177  A    between atoms: _432  and  _433
REMARK  178  A    between atoms: _432  and  _435
REMARK  179  A    between atoms: _435  and  _436
REMARK  180  A    between atoms: _438  and  _440
REMARK  181  A    between atoms: _440  and  _441
REMARK  182  A    between atoms: _440  and  _443
REMARK  183  A    between atoms: _443  and  _444
REMARK  184  A    between atoms: _454  and  _456
REMARK  185  A    between atoms: _456  and  _457
REMARK  186  A    between atoms: _456  and  _459
REMARK  187  A    between atoms: _459  and  _460
REMARK  188  A    between atoms: _463  and  _465
REMARK  189  A    between atoms: _465  and  _466
REMARK  190  A    between atoms: _468  and  _470
REMARK  191  A    between atoms: _470  and  _471
REMARK  192  A    between atoms: _470  and  _473
REMARK  193  A    between atoms: _473  and  _474
REMARK  194  A    between atoms: _479  and  _481
REMARK  195  A    between atoms: _481  and  _482
REMARK  196  A    between atoms: _481  and  _484
REMARK  197  A    between atoms: _484  and  _485
REMARK  198  A    between atoms: _488  and  _490
REMARK  199  A    between atoms: _490  and  _491
REMARK  200  A    between atoms: _490  and  _493
REMARK  201  A    between atoms: _493  and  _494
REMARK  202  A    between atoms: _497  and  _499
REMARK  203  A    between atoms: _499  and  _500
REMARK  204  A    between atoms: _499  and  _502
REMARK  205  A    between atoms: _502  and  _503
REMARK  206  A    between atoms: _503  and  _504
REMARK  207  A    between atoms: _506  and  _508
REMARK  208  A    between atoms: _508  and  _509
REMARK  209  A    between atoms: _508  and  _511
REMARK  210  A    between atoms: _511  and  _512
REMARK  211  A    between atoms: _517  and  _518
REMARK  212  A    between atoms: _520  and  _522
REMARK  213  A    between atoms: _522  and  _523
REMARK  214  A    between atoms: _527  and  _528
REMARK  215  A    between atoms: _533  and  _535
REMARK  216  A    between atoms: _535  and  _536
REMARK  217  A    between atoms: _535  and  _538
REMARK  218  A    between atoms: _538  and  _539
REMARK  219  A    between atoms: _542  and  _544
REMARK  220  A    between atoms: _544  and  _545
REMARK  221  A    between atoms: _544  and  _547
REMARK  222  A    between atoms: _547  and  _548
REMARK  223  A    between atoms: _558  and  _560
REMARK  224  A    between atoms: _560  and  _561
REMARK  225  A    between atoms: _560  and  _563
REMARK  226  A    between atoms: _563  and  _564
REMARK  227  A    between atoms: _567  and  _569
REMARK  228  A    between atoms: _569  and  _570
REMARK  229  A    between atoms: _569  and  _572
REMARK  230  A    between atoms: _574  and  _576
REMARK  231  A    between atoms: _576  and  _577
REMARK  232  A    between atoms: _576  and  _579
REMARK  233  A    between atoms: _579  and  _580
REMARK  234  A    between atoms: _580  and  _581
REMARK  235  A    between atoms: _586  and  _588
REMARK  236  A    between atoms: _588  and  _589
REMARK  237  A    between atoms: _588  and  _591
REMARK  238  A    between atoms: _591  and  _592
REMARK  239  A    between atoms: _595  and  _597
REMARK  240  A    between atoms: _597  and  _598
REMARK  241  A    between atoms: _597  and  _600
REMARK  242  A    between atoms: _600  and  _601
REMARK  243  A    between atoms: _606  and  _607
REMARK  244  A    between atoms: _609  and  _611
REMARK  245  A    between atoms: _611  and  _612
REMARK  246  A    between atoms: _614  and  _616
REMARK  247  A    between atoms: _616  and  _617
REMARK  248  A    between atoms: _620  and  _622
REMARK  249  A    between atoms: _622  and  _623
REMARK  250  A    between atoms: _622  and  _625
REMARK  251  A    between atoms: _627  and  _629
REMARK  252  A    between atoms: _629  and  _630
REMARK  253  A    between atoms: _629  and  _632
REMARK  254  A    between atoms: _632  and  _633
REMARK  255  A    between atoms: _638  and  _639
REMARK  256  A    between atoms: _641  and  _643
REMARK  257  A    between atoms: _643  and  _644
REMARK  258  A    between atoms: _643  and  _646
REMARK  259  A    between atoms: _646  and  _647
REMARK  260  A    between atoms: _650  and  _652
REMARK  261  A    between atoms: _652  and  _653
REMARK  262  A    between atoms: _652  and  _655
REMARK  263  A    between atoms: _655  and  _656
REMARK  264  A    between atoms: _661  and  _663
REMARK  265  A    between atoms: _663  and  _664
REMARK  266  A    between atoms: _663  and  _666
REMARK  267  A    between atoms: _666  and  _667
REMARK  268  A    between atoms: _673  and  _675
REMARK  269  A    between atoms: _675  and  _676
REMARK  270  A    between atoms: _679  and  _681
REMARK  271  A    between atoms: _681  and  _682
REMARK  272  A    between atoms: _684  and  _686
REMARK  273  A    between atoms: _686  and  _687
REMARK  274  A    between atoms: _686  and  _689
REMARK  275  A    between atoms: _689  and  _690
REMARK  276  A    between atoms: _695  and  _696
REMARK  277  A    between atoms: _698  and  _700
REMARK  278  A    between atoms: _700  and  _701
REMARK  279  A    between atoms: _700  and  _703
REMARK  280  A    between atoms: _703  and  _704
REMARK  281  A    between atoms: _706  and  _708
REMARK  282  A    between atoms: _708  and  _709
REMARK  283  A    between atoms: _711  and  _713
REMARK  284  A    between atoms: _713  and  _714
REMARK                            x       y       z     vdW  Elec       q    Type
REMARK                         _______ _______ _______ _____ _____    ______ ____
ROOT
ATOM      1  CA  GLU A   1      23.230  -9.694  33.545  0.00  0.00    +0.134 C 
ENDROOT
BRANCH   1   2
ATOM      2  N   GLU A   1      24.632  -9.938  33.211  0.00  0.00    -0.239 NA
ATOM      3  H   GLU A   1      25.181  -9.185  32.749  0.00  0.00    +0.142 HD
ENDBRANCH   1   2
BRANCH   1   4
ATOM      4  C   GLU A   1      22.279 -10.482  32.648  0.00  0.00    +0.224 C 
ATOM      5  O   GLU A   1      21.160 -10.804  33.032  0.00  0.00    -0.287 OA
ENDBRANCH   1   4
BRANCH   1   6
ATOM      6  CB  GLU A   1      22.938  -8.203  33.524  0.00  0.00    +0.037 C 
BRANCH   6   7
ATOM      7  CG  GLU A   1      23.730  -7.437  34.614  0.00  0.00    +0.116 C 
BRANCH   7   8
ATOM      8  CD  GLU A   1      23.887  -5.939  34.363  0.00  0.00    +0.365 C 
ATOM      9  OE2 GLU A   1      24.583  -5.289  35.160  0.00  0.00    -0.246 OA
ATOM     10  OE1 GLU A   1      23.307  -5.401  33.404  0.00  0.00    -0.246 OA
ENDBRANCH   7   8
ENDBRANCH   6   7
ENDBRANCH   1   6
TORSDOF 5
REMARK  Name = ../refined-set-2016/3gnw/3gnw_pocket.pdb
REMARK  284 active torsions:
REMARK  status: ('A' for Active; 'I' for Inactive)
REMARK    1  A    between atoms: _1  and  _3
REMARK    2  A    between atoms: _3  and  _4
REMARK    3  A    between atoms: _3  and  _6
REMARK    4  A    between atoms: _6  and  _7
REMARK    5  A    between atoms: _7  and  _8
REMARK    6  A    between atoms: _8  and  _9
REMARK    7  A    between atoms: _9  and  _10
REMARK    8  A    between atoms: _14  and  _16
REMARK    9  A    between atoms: _16  and  _17
REMARK   10  A    between atoms: _16  and  _19
REMARK   11  A    between atoms: _19  and  _20
REMARK   12  A    between atoms: _20  and  _21
REMARK   13  A    between atoms: _24  and  _26
REMARK   14  A    between atoms: _26  and  _27
REMARK   15  A    between atoms: _26  and  _29
REMARK   16  A    between atoms: _29  and  _30
REMARK   17  A    between atoms: _36  and  _38
REMARK   18  A    between atoms: _38  and  _39
REMARK   19  A    between atoms: _38  and  _41
REMARK   20  A    between atoms: _41  and  _42
REMARK   21  A    between atoms: _42  and  _43
REMARK   22  A    between atoms: _43  and  _44
REMARK   23  A    between atoms: _53  and  _55
REMARK   24  A    between atoms: _55  and  _56
REMARK   25  A    between atoms: _55  and  _58
REMARK   26  A    between atoms: _58  and  _59
REMARK   27  A    between atoms: _62  and  _64
REMARK   28  A    between atoms: _64  and  _65
REMARK   29  A    between atoms: _67  and  _69
REMARK   30  A    between atoms: _69  and  _70
REMARK   31  A    between atoms: _69  and  _72
REMARK   32  A    between atoms: _72  and  _73
REMARK   33  A    between atoms: _79  and  _81
REMARK   34  A    between atoms: _81  and  _82
REMARK   35  A    between atoms: _81  and  _84
REMARK   36  A    between atoms: _84  and  _85
REMARK   37  A    between atoms: _90  and  _91
REMARK   38  A    between atoms: _93  and  _95
REMARK   39  A    between atoms: _95  and  _96
REMARK   40  A    between atoms: _95  and  _98
REMARK   41  A    between atoms: _98  and  _99
REMARK   42  A    between atoms: _102  and  _103
REMARK   43  A    between atoms: _108  and  _110
REMARK   44  A    between atoms: _110  and  _111
REMARK   45  A    between atoms: _110  and  _113
REMARK   46  A    between atoms: _113  and  _114
REMARK   47  A    between atoms: _114  and  _115
REMARK   48  A    between atoms: _115  and  _116
REMARK   49  A    between atoms: _116  and  _117
REMARK   50  A    between atoms: _121  and  _123
REMARK   51  A    between atoms: _123  and  _124
REMARK   52  A    between atoms: _123  and  _126
REMARK   53  A    between atoms: _126  and  _127
REMARK   54  A    between atoms: _127  and  _128
REMARK   55  A    between atoms: _133  and  _135
REMARK   56  A    between atoms: _135  and  _136
REMARK   57  A    between atoms: _135  and  _138
REMARK   58  A    between atoms: _138  and  _139
REMARK   59  A    between atoms: _139  and  _140
REMARK   60  A    between atoms: _140  and  _141
REMARK   61  A    between atoms: _150  and  _152
REMARK   62  A    between atoms: _152  and  _153
REMARK   63  A    between atoms: _152  and  _155
REMARK   64  A    between atoms: _158  and  _160
REMARK   65  A    between atoms: _160  and  _161
REMARK   66  A    between atoms: _160  and  _163
REMARK   67  A    between atoms: _163  and  _164
REMARK   68  A    between atoms: _167  and  _169
REMARK   69  A    between atoms: _169  and  _170
REMARK   70  A    between atoms: _169  and  _172
REMARK   71  A    between atoms: _172  and  _173
REMARK   72  A    between atoms: _179  and  _181
REMARK   73  A    between atoms: _181  and  _182
REMARK   74  A    between atoms: _181  and  _184
REMARK   75  A    between atoms: _184  and  _185
REMARK   76  A    between atoms: _188  and  _190
REMARK   77  A    between atoms: _190  and  _191
REMARK   78  A    between atoms: _190  and  _193
REMARK   79  A    between atoms: _193  and  _194
REMARK   80  A    between atoms: _196  and  _198
REMARK   81  A    between atoms: _198  and  _199
REMARK   82  A    between atoms: _198  and  _201
REMARK   83  A    between atoms: _201  and  _202
REMARK   84  A    between atoms: _205  and  _207
REMARK   85  A    between atoms: _207  and  _208
REMARK   86  A    between atoms: _207  and  _210
REMARK   87  A    between atoms: _210  and  _211
REMARK   88  A    between atoms: _213  and  _215
REMARK   89  A    between atoms: _215  and  _216
REMARK   90  A    between atoms: _215  and  _218
REMARK   91  A    between atoms: _218  and  _219
REMARK   92  A    between atoms: _224  and  _226
REMARK   93  A    between atoms: _226  and  _227
REMARK   94  A    between atoms: _226  and  _229
REMARK   95  A    between atoms: _229  and  _230
REMARK   96  A    between atoms: _233  and  _235
REMARK   97  A    between atoms: _235  and  _236
REMARK   98  A    between atoms: _235  and  _238
REMARK   99  A    between atoms: _238  and  _239
REMARK  100  A    between atoms: _244  and  _246
REMARK  101  A    between atoms: _246  and  _247
REMARK  102  A    between atoms: _249  and  _251
REMARK  103  A    between atoms: _251  and  _252
REMARK  104  A    between atoms: _251  and  _254
REMARK  105  A    between atoms: _254  and  _255
REMARK  106  A    between atoms: _258  and  _260
REMARK  107  A    between atoms: _260  and  _261
REMARK  108  A    between atoms: _260  and  _263
REMARK  109  A    between atoms: _263  and  _264
REMARK  110  A    between atoms: _267  and  _269
REMARK  111  A    between atoms: _269  and  _270
REMARK  112  A    between atoms: _269  and  _272
REMARK  113  A    between atoms: _272  and  _273
REMARK  114  A    between atoms: _276  and  _278
REMARK  115  A    between atoms: _278  and  _279
REMARK  116  A    between atoms: _278  and  _281
REMARK  117  A    between atoms: _281  and  _282
REMARK  118  A    between atoms: _284  and  _286
REMARK  119  A    between atoms: _286  and  _287
REMARK  120  A    between atoms: _286  and  _289
REMARK  121  A    between atoms: _291  and  _293
REMARK  122  A    between atoms: _293  and  _294
REMARK  123  A    between atoms: _293  and  _296
REMARK  124  A    between atoms: _296  and  _297
REMARK  125  A    between atoms: _299  and  _301
REMARK  126  A    between atoms: _301  and  _302
REMARK  127  A    between atoms: _301  and  _304
REMARK  128  A    between atoms: _304  and  _305
REMARK  129  A    between atoms: _307  and  _309
REMARK  130  A    between atoms: _309  and  _310
REMARK  131  A    between atoms: _309  and  _312
REMARK  132  A    between atoms: _312  and  _313
REMARK  133  A    between atoms: _318  and  _320
REMARK  134  A    between atoms: _320  and  _321
REMARK  135  A    between atoms: _320  and  _323
REMARK  136  A    between atoms: _323  and  _324
REMARK  137  A    between atoms: _329  and  _330
REMARK  138  A    between atoms: _332  and  _334
REMARK  139  A    between atoms: _334  and  _335
REMARK  140  A    between atoms: _334  and  _337
REMARK  141  A    between atoms: _337  and  _338
REMARK  142  A    between atoms: _341  and  _343
REMARK  143  A    between atoms: _343  and  _344
REMARK  144  A    between atoms: _343  and  _346
REMARK  145  A    between atoms: _346  and  _347
REMARK  146  A    between atoms: _350  and  _352
REMARK  147  A    between atoms: _352  and  _353
REMARK  148  A    between atoms: _352  and  _355
REMARK  149  A    between atoms: _355  and  _356
REMARK  150  A    between atoms: _356  and  _357
REMARK  151  A    between atoms: _357  and  _358
REMARK  152  A    between atoms: _367  and  _369
REMARK  153  A    between atoms: _369  and  _370
REMARK  154  A    between atoms: _369  and  _372
REMARK  155  A    between atoms: _372  and  _373
REMARK  156  A    between atoms: _377  and  _378
REMARK  157  A    between atoms: _383  and  _385
REMARK  158  A    between atoms: _385  and  _386
REMARK  159  A    between atoms: _385  and  _388
REMARK  160  A    between atoms: _388  and  _389
REMARK  161  A    between atoms: _389  and  _390
REMARK  162  A    between atoms: _390  and  _391
REMARK  163  A    between atoms: _400  and  _402
REMARK  164  A    between atoms: _402  and  _403
REMARK  165  A    between atoms: _402  and  _405
REMARK  166  A    between atoms: _405  and  _406
REMARK  167  A    between atoms: _406  and  _407
REMARK  168  A    between atoms: _410  and  _412
REMARK  169  A    between atoms: _412  and  _413
REMARK  170  A    between atoms: _412  and  _415
REMARK  171  A    between atoms: _415  and  _416
REMARK  172  A    between atoms: _419  and  _421
REMARK  173  A    between atoms: _421  and  _422
REMARK  174  A    between atoms: _421  and  _424
REMARK  175  A    between atoms: _424  and  _425
REMARK  176  A    between atoms: _430  and  _432
REMARK  177  A    between atoms: _432  and  _433
REMARK  178  A    between atoms: _432  and  _435
REMARK  179  A    between atoms: _435  and  _436
REMARK  180  A    between atoms: _438  and  _440
REMARK  181  A    between atoms: _440  and  _441
REMARK  182  A    between atoms: _440  and  _443
REMARK  183  A    between atoms: _443  and  _444
REMARK  184  A    between atoms: _454  and  _456
REMARK  185  A    between atoms: _456  and  _457
REMARK  186  A    between atoms: _456  and  _459
REMARK  187  A    between atoms: _459  and  _460
REMARK  188  A    between atoms: _463  and  _465
REMARK  189  A    between atoms: _465  and  _466
REMARK  190  A    between atoms: _468  and  _470
REMARK  191  A    between atoms: _470  and  _471
REMARK  192  A    between atoms: _470  and  _473
REMARK  193  A    between atoms: _473  and  _474
REMARK  194  A    between atoms: _479  and  _481
REMARK  195  A    between atoms: _481  and  _482
REMARK  196  A    between atoms: _481  and  _484
REMARK  197  A    between atoms: _484  and  _485
REMARK  198  A    between atoms: _488  and  _490
REMARK  199  A    between atoms: _490  and  _491
REMARK  200  A    between atoms: _490  and  _493
REMARK  201  A    between atoms: _493  and  _494
REMARK  202  A    between atoms: _497  and  _499
REMARK  203  A    between atoms: _499  and  _500
REMARK  204  A    between atoms: _499  and  _502
REMARK  205  A    between atoms: _502  and  _503
REMARK  206  A    between atoms: _503  and  _504
REMARK  207  A    between atoms: _506  and  _508
REMARK  208  A    between atoms: _508  and  _509
REMARK  209  A    between atoms: _508  and  _511
REMARK  210  A    between atoms: _511  and  _512
REMARK  211  A    between atoms: _517  and  _518
REMARK  212  A    between atoms: _520  and  _522
REMARK  213  A    between atoms: _522  and  _523
REMARK  214  A    between atoms: _527  and  _528
REMARK  215  A    between atoms: _533  and  _535
REMARK  216  A    between atoms: _535  and  _536
REMARK  217  A    between atoms: _535  and  _538
REMARK  218  A    between atoms: _538  and  _539
REMARK  219  A    between atoms: _542  and  _544
REMARK  220  A    between atoms: _544  and  _545
REMARK  221  A    between atoms: _544  and  _547
REMARK  222  A    between atoms: _547  and  _548
REMARK  223  A    between atoms: _558  and  _560
REMARK  224  A    between atoms: _560  and  _561
REMARK  225  A    between atoms: _560  and  _563
REMARK  226  A    between atoms: _563  and  _564
REMARK  227  A    between atoms: _567  and  _569
REMARK  228  A    between atoms: _569  and  _570
REMARK  229  A    between atoms: _569  and  _572
REMARK  230  A    between atoms: _574  and  _576
REMARK  231  A    between atoms: _576  and  _577
REMARK  232  A    between atoms: _576  and  _579
REMARK  233  A    between atoms: _579  and  _580
REMARK  234  A    between atoms: _580  and  _581
REMARK  235  A    between atoms: _586  and  _588
REMARK  236  A    between atoms: _588  and  _589
REMARK  237  A    between atoms: _588  and  _591
REMARK  238  A    between atoms: _591  and  _592
REMARK  239  A    between atoms: _595  and  _597
REMARK  240  A    between atoms: _597  and  _598
REMARK  241  A    between atoms: _597  and  _600
REMARK  242  A    between atoms: _600  and  _601
REMARK  243  A    between atoms: _606  and  _607
REMARK  244  A    between atoms: _609  and  _611
REMARK  245  A    between atoms: _611  and  _612
REMARK  246  A    between atoms: _614  and  _616
REMARK  247  A    between atoms: _616  and  _617
REMARK  248  A    between atoms: _620  and  _622
REMARK  249  A    between atoms: _622  and  _623
REMARK  250  A    between atoms: _622  and  _625
REMARK  251  A    between atoms: _627  and  _629
REMARK  252  A    between atoms: _629  and  _630
REMARK  253  A    between atoms: _629  and  _632
REMARK  254  A    between atoms: _632  and  _633
REMARK  255  A    between atoms: _638  and  _639
REMARK  256  A    between atoms: _641  and  _643
REMARK  257  A    between atoms: _643  and  _644
REMARK  258  A    between atoms: _643  and  _646
REMARK  259  A    between atoms: _646  and  _647
REMARK  260  A    between atoms: _650  and  _652
REMARK  261  A    between atoms: _652  and  _653
REMARK  262  A    between atoms: _652  and  _655
REMARK  263  A    between atoms: _655  and  _656
REMARK  264  A    between atoms: _661  and  _663
REMARK  265  A    between atoms: _663  and  _664
REMARK  266  A    between atoms: _663  and  _666
REMARK  267  A    between atoms: _666  and  _667
REMARK  268  A    between atoms: _673  and  _675
REMARK  269  A    between atoms: _675  and  _676
REMARK  270  A    between atoms: _679  and  _681
REMARK  271  A    between atoms: _681  and  _682
REMARK  272  A    between atoms: _684  and  _686
REMARK  273  A    between atoms: _686  and  _687
REMARK  274  A    between atoms: _686  and  _689
REMARK  275  A    between atoms: _689  and  _690
REMARK  276  A    between atoms: _695  and  _696
REMARK  277  A    between atoms: _698  and  _700
REMARK  278  A    between atoms: _700  and  _701
REMARK  279  A    between atoms: _700  and  _703
REMARK  280  A    between atoms: _703  and  _704
REMARK  281  A    between atoms: _706  and  _708
REMARK  282  A    between atoms: _708  and  _709
REMARK  283  A    between atoms: _711  and  _713
REMARK  284  A    between atoms: _713  and  _714
REMARK                            x       y       z     vdW  Elec       q    Type
REMARK                         _______ _______ _______ _____ _____    ______ ____
ROOT
ATOM      1  CA  ASN A   7      24.085   2.295  29.997  0.00  0.00    +0.158 C 
ENDROOT
BRANCH   1   2
ATOM      2  C   ASN A   7      23.336   2.684  28.706  0.00  0.00    +0.241 C 
ATOM      3  N   ILE A   8      22.192   2.053  28.468  0.00  0.00    -0.297 N 
ATOM      4  H   ILE A   8      21.857   1.317  29.122  0.00  0.00    +0.150 HD
ATOM      5  O   ASN A   7      23.787   3.546  27.936  0.00  0.00    -0.273 OA
BRANCH   3   6
ATOM      6  CA  ILE A   8      21.404   2.394  27.286  0.00  0.00    +0.149 C 
BRANCH   6   7
ATOM      7  C   ILE A   8      20.865   3.817  27.435  0.00  0.00    +0.241 C 
ATOM      8  N   ILE A   9      20.433   4.169  28.643  0.00  0.00    -0.297 N 
ATOM      9  H   ILE A   9      20.508   3.481  29.419  0.00  0.00    +0.150 HD
ATOM     10  O   ILE A   8      20.847   4.569  26.474  0.00  0.00    -0.273 OA
BRANCH   8  11
ATOM     11  CA  ILE A   9      19.862   5.472  28.922  0.00  0.00    +0.149 C 
BRANCH  11  12
ATOM     12  C   ILE A   9      20.931   6.551  28.799  0.00  0.00    +0.241 C 
ATOM     13  N   MET A  10      22.073   6.350  29.434  0.00  0.00    -0.297 N 
ATOM     14  H   MET A  10      22.227   5.436  29.906  0.00  0.00    +0.150 HD
ATOM     15  O   ILE A   9      20.752   7.515  28.089  0.00  0.00    -0.273 OA
BRANCH  13  16
ATOM     16  CA  MET A  10      23.124   7.354  29.500  0.00  0.00    +0.149 C 
BRANCH  16  17
ATOM     17  C   MET A  10      24.020   7.425  28.254  0.00  0.00    +0.241 C 
ATOM     18  O   MET A  10      24.546   8.495  27.899  0.00  0.00    -0.273 OA
ATOM     19  N   TYR A  11      24.206   6.303  27.582  0.00  0.00    -0.297 N 
ATOM     20  H   TYR A  11      23.766   5.421  27.914  0.00  0.00    +0.150 HD
BRANCH  19  21
ATOM     21  CA  TYR A  11      25.024   6.298  26.379  0.00  0.00    +0.153 C 
BRANCH  21  22
ATOM     22  C   TYR A  11      24.223   5.958  25.108  0.00  0.00    +0.241 C 
ATOM     23  N   ALA A  12      22.938   6.263  25.134  0.00  0.00    -0.297 N 
ATOM     24  H   ALA A  12      22.546   6.690  25.998  0.00  0.00    +0.150 HD
ATOM     25  O   TYR A  11      24.768   5.457  24.122  0.00  0.00    -0.273 OA
BRANCH  23  26
ATOM     26  CA  ALA A  12      22.046   6.028  24.008  0.00  0.00    +0.149 C 
ATOM     27  CB  ALA A  12      20.687   6.758  24.237  0.00  0.00    +0.031 C 
BRANCH  26  28
ATOM     28  C   ALA A  12      22.619   6.445  22.649  0.00  0.00    +0.244 C 
ATOM     29  N   PRO A  13      23.259   7.632  22.565  0.00  0.00    -0.272 N 
ATOM     30  CD  PRO A  13      23.555   8.681  23.551  0.00  0.00    +0.094 C 
ATOM     31  CG  PRO A  13      23.626   9.896  22.714  0.00  0.00    +0.024 C 
ATOM     32  CB  PRO A  13      24.089   9.496  21.350  0.00  0.00    +0.031 C 
ATOM     33  CA  PRO A  13      23.714   8.009  21.210  0.00  0.00    +0.152 C 
ATOM     34  O   ALA A  12      22.450   5.717  21.661  0.00  0.00    -0.273 OA
BRANCH  33  35
ATOM     35  C   PRO A  13      24.886   7.195  20.665  0.00  0.00    +0.241 C 
ATOM     36  N   THR A  14      25.530   6.401  21.518  0.00  0.00    -0.296 N 
ATOM     37  H   THR A  14      25.153   6.281  22.480  0.00  0.00    +0.150 HD
ATOM     38  O   PRO A  13      25.197   7.310  19.481  0.00  0.00    -0.273 OA
BRANCH  36  39
ATOM     39  CA  THR A  14      26.739   5.700  21.145  0.00  0.00    +0.164 C 
BRANCH  39  40
ATOM     40  CB  THR A  14      27.520   5.171  22.375  0.00  0.00    +0.136 C 
ATOM     41  CG2 THR A  14      27.797   6.276  23.387  0.00  0.00    +0.034 C 
BRANCH  40  42
ATOM     42  OG1 THR A  14      26.798   4.101  22.999  0.00  0.00    -0.382 OA
ATOM     43  HG1 THR A  14      25.912   4.430  23.295  0.00  0.00    +0.210 HD
ENDBRANCH  40  42
ENDBRANCH  39  40
BRANCH  39  44
ATOM     44  C   THR A  14      26.469   4.522  20.181  0.00  0.00    +0.229 C 
ATOM     45  O   THR A  14      25.430   3.875  20.173  0.00  0.00    -0.286 OA
ENDBRANCH  39  44
ENDBRANCH  36  39
ENDBRANCH  33  35
ENDBRANCH  26  28
ENDBRANCH  23  26
ENDBRANCH  21  22
BRANCH  21  46
ATOM     46  CB  TYR A  11      26.218   5.340  26.582  0.00  0.00    +0.055 C 
BRANCH  46  47
ATOM     47  CG  TYR A  11      27.209   5.797  27.661  0.00  0.00    -0.020 A 
ATOM     48  CD2 TYR A  11      27.177   5.254  28.974  0.00  0.00    -0.001 A 
ATOM     49  CE2 TYR A  11      28.081   5.664  29.945  0.00  0.00    +0.036 A 
ATOM     50  CZ  TYR A  11      29.036   6.623  29.619  0.00  0.00    +0.134 A 
ATOM     51  CE1 TYR A  11      29.096   7.155  28.346  0.00  0.00    +0.036 A 
ATOM     52  CD1 TYR A  11      28.166   6.741  27.372  0.00  0.00    -0.001 A 
BRANCH  50  53
ATOM     53  OH  TYR A  11      29.944   7.042  30.534  0.00  0.00    -0.506 OA
ATOM     54  HH  TYR A  11      30.485   6.271  30.837  0.00  0.00    +0.292 HD
ENDBRANCH  50  53
ENDBRANCH  46  47
ENDBRANCH  21  46
ENDBRANCH  19  21
ENDBRANCH  16  17
BRANCH  16  55
ATOM     55  CB  MET A  10      23.977   7.087  30.744  0.00  0.00    +0.041 C 
BRANCH  55  56
ATOM     56  CG  MET A  10      23.181   7.146  32.058  0.00  0.00    +0.060 C 
BRANCH  56  57
ATOM     57  SD  MET A  10      22.719   8.837  32.454  0.00  0.00    -0.139 S 
ATOM     58  CE  MET A  10      24.209   9.351  33.283  0.00  0.00    +0.069 C 
ENDBRANCH  56  57
ENDBRANCH  55  56
ENDBRANCH  16  55
ENDBRANCH  13  16
ENDBRANCH  11  12
BRANCH  11  59
ATOM     59  CB  ILE A   9      19.170   5.467  30.328  0.00  0.00    +0.027 C 
ATOM     60  CG2 ILE A   9      18.789   6.889  30.814  0.00  0.00    +0.002 C 
BRANCH  59  61
ATOM     61  CG1 ILE A   9      17.902   4.619  30.283  0.00  0.00    +0.002 C 
ATOM     62  CD1 ILE A   9      17.445   4.138  31.645  0.00  0.00    +0.000 C 
ENDBRANCH  59  61
ENDBRANCH  11  59
ENDBRANCH   8  11
ENDBRANCH   6   7
BRANCH   6  63
ATOM     63  CB  ILE A   8      20.258   1.380  27.000  0.00  0.00    +0.027 C 
ATOM     64  CG2 ILE A   8      19.208   2.015  26.112  0.00  0.00    +0.002 C 
BRANCH  63  65
ATOM     65  CG1 ILE A   8      20.818   0.136  26.292  0.00  0.00    +0.002 C 
ATOM     66  CD1 ILE A   8      19.830  -1.049  26.163  0.00  0.00    +0.000 C 
ENDBRANCH  63  65
ENDBRANCH   6  63
ENDBRANCH   3   6
ENDBRANCH   1   2
BRANCH   1  69
ATOM     67  C   GLY A   6      22.384   2.865  31.637  0.00  0.00    +0.243 C 
ATOM     68  O   GLY A   6      22.437   4.071  31.306  0.00  0.00    -0.273 OA
ATOM     69  N   ASN A   7      23.147   1.936  31.065  0.00  0.00    -0.297 N 
ATOM     70  H   ASN A   7      23.077   0.947  31.379  0.00  0.00    +0.150 HD
BRANCH  67  71
ATOM     71  CA  GLY A   6      21.456   2.398  32.755  0.00  0.00    +0.176 C 
BRANCH  71  73
ATOM     72  C   LEU A   5      20.126   0.914  31.375  0.00  0.00    +0.241 C 
ATOM     73  N   GLY A   6      20.866   1.095  32.468  0.00  0.00    -0.295 N 
ATOM     74  H   GLY A   6      21.024   0.302  33.121  0.00  0.00    +0.150 HD
ATOM     75  O   LEU A   5      19.802   1.862  30.621  0.00  0.00    -0.273 OA
BRANCH  72  76
ATOM     76  CA  LEU A   5      19.708  -0.535  31.065  0.00  0.00    +0.149 C 
BRANCH  76  78
ATOM     77  C   TRP A   4      21.840  -1.482  30.377  0.00  0.00    +0.241 C 
ATOM     78  N   LEU A   5      20.818  -1.442  31.227  0.00  0.00    -0.297 N 
ATOM     79  H   LEU A   5      20.819  -2.090  32.040  0.00  0.00    +0.150 HD
ATOM     80  O   TRP A   4      21.935  -0.763  29.375  0.00  0.00    -0.273 OA
BRANCH  77  81
ATOM     81  CA  TRP A   4      22.911  -2.500  30.698  0.00  0.00    +0.153 C 
BRANCH  81  84
ATOM     82  C   SER A   3      23.549  -1.543  32.856  0.00  0.00    +0.243 C 
ATOM     83  O   SER A   3      23.680  -0.411  32.366  0.00  0.00    -0.273 OA
ATOM     84  N   TRP A   4      23.148  -2.603  32.149  0.00  0.00    -0.297 N 
ATOM     85  H   TRP A   4      23.001  -3.514  32.629  0.00  0.00    +0.150 HD
BRANCH  82  86
ATOM     86  CA  SER A   3      23.832  -1.773  34.328  0.00  0.00    +0.178 C 
BRANCH  86  88
ATOM     87  C   ASN A   2      21.637  -2.570  34.916  0.00  0.00    +0.241 C 
ATOM     88  N   SER A   3      22.947  -2.781  34.862  0.00  0.00    -0.295 N 
ATOM     89  H   SER A   3      23.339  -3.680  35.207  0.00  0.00    +0.150 HD
ATOM     90  O   ASN A   2      21.103  -1.522  34.526  0.00  0.00    -0.273 OA
BRANCH  87  91
ATOM     91  CA  ASN A   2      20.794  -3.709  35.468  0.00  0.00    +0.158 C 
BRANCH  91  94
ATOM     92  C   ILE A   1      20.986  -3.995  37.892  0.00  0.00    +0.238 C 
ATOM     93  O   ILE A   1      21.994  -4.691  37.797  0.00  0.00    -0.274 OA
ATOM     94  N   ASN A   2      20.373  -3.451  36.844  0.00  0.00    -0.297 N 
ATOM     95  H   ASN A   2      19.564  -2.819  37.010  0.00  0.00    +0.150 HD
BRANCH  92  96
ATOM     96  CA  ILE A   1      20.406  -3.679  39.275  0.00  0.00    +0.145 C 
BRANCH  96  97
ATOM     97  N   ILE A   1      20.227  -4.908  40.067  0.00  0.00    -0.238 NA
ATOM     98  H   ILE A   1      21.067  -5.462  40.331  0.00  0.00    +0.142 HD
ENDBRANCH  96  97
BRANCH  96  99
ATOM     99  CB  ILE A   1      21.348  -2.667  39.963  0.00  0.00    +0.025 C 
ATOM    100  CG2 ILE A   1      21.602  -1.458  39.040  0.00  0.00    +0.002 C 
BRANCH  99 101
ATOM    101  CG1 ILE A   1      20.753  -2.200  41.295  0.00  0.00    +0.002 C 
ATOM    102  CD1 ILE A   1      19.553  -1.271  41.112  0.00  0.00    +0.000 C 
ENDBRANCH  99 101
ENDBRANCH  96  99
ENDBRANCH  92  96
ENDBRANCH  91  94
BRANCH  91 103
ATOM    103  CB  ASN A   2      19.572  -3.900  34.574  0.00  0.00    +0.114 C 
BRANCH 103 104
ATOM    104  CG  ASN A   2      18.726  -5.070  35.013  0.00  0.00    +0.222 C 
ATOM    105  ND2 ASN A   2      17.581  -4.776  35.617  0.00  0.00    -0.329 N 
ATOM    106 HD21 ASN A   2      16.973  -5.538  35.978  0.00  0.00    +0.145 HD
ATOM    107 HD22 ASN A   2      17.292  -3.783  35.730  0.00  0.00    +0.145 HD
ATOM    108  OD1 ASN A   2      19.120  -6.232  34.851  0.00  0.00    -0.275 OA
ENDBRANCH 103 104
ENDBRANCH  91 103
ENDBRANCH  87  91
ENDBRANCH  86  88
BRANCH  86 109
ATOM    109  CB  SER A   3      25.313  -2.127  34.565  0.00  0.00    +0.166 C 
BRANCH 109 110
ATOM    110  OG  SER A   3      25.732  -3.248  33.821  0.00  0.00    -0.380 OA
ATOM    111  H   SER A   3      25.188  -4.034  34.077  0.00  0.00    +0.211 HD
ENDBRANCH 109 110
ENDBRANCH  86 109
ENDBRANCH  82  86
ENDBRANCH  81  84
BRANCH  81 112
ATOM    112  CB  TRP A   4      22.555  -3.861  30.055  0.00  0.00    +0.057 C 
BRANCH 112 113
ATOM    113  CG  TRP A   4      21.248  -4.475  30.473  0.00  0.00    -0.002 A 
ATOM    114  CD1 TRP A   4      21.063  -5.443  31.432  0.00  0.00    +0.068 A 
ATOM    115  NE1 TRP A   4      19.737  -5.763  31.523  0.00  0.00    -0.352 N 
ATOM    116  HE1 TRP A   4      19.331  -6.469  32.170  0.00  0.00    +0.166 HD
ATOM    117  CE2 TRP A   4      19.029  -5.008  30.628  0.00  0.00    +0.056 A 
ATOM    118  CZ2 TRP A   4      17.659  -4.995  30.343  0.00  0.00    +0.017 A 
ATOM    119  CH2 TRP A   4      17.218  -4.140  29.365  0.00  0.00    +0.001 A 
ATOM    120  CZ3 TRP A   4      18.102  -3.300  28.691  0.00  0.00    +0.000 A 
ATOM    121  CE3 TRP A   4      19.467  -3.328  28.950  0.00  0.00    +0.001 A 
ATOM    122  CD2 TRP A   4      19.950  -4.206  29.929  0.00  0.00    +0.013 A 
ENDBRANCH 112 113
ENDBRANCH  81 112
ENDBRANCH  77  81
ENDBRANCH  76  78
BRANCH  76 123
ATOM    123  CB  LEU A   5      18.577  -0.994  31.980  0.00  0.00    +0.029 C 
BRANCH 123 124
ATOM    124  CG  LEU A   5      17.289  -0.167  31.976  0.00  0.00    +0.002 C 
ATOM    125  CD2 LEU A   5      16.259  -0.842  32.857  0.00  0.00    +0.000 C 
ATOM    126  CD1 LEU A   5      16.745   0.093  30.547  0.00  0.00    +0.000 C 
ENDBRANCH 123 124
ENDBRANCH  76 123
ENDBRANCH  72  76
ENDBRANCH  71  73
ENDBRANCH  67  71
ENDBRANCH   1  69
BRANCH   1 127
ATOM    127  CB  ASN A   7      25.088   1.163  29.717  0.00  0.00    +0.114 C 
BRANCH 127 128
ATOM    128  CG  ASN A   7      26.300   1.181  30.658  0.00  0.00    +0.222 C 
ATOM    129  ND2 ASN A   7      26.706  -0.009  31.129  0.00  0.00    -0.329 N 
ATOM    130 HD21 ASN A   7      27.529  -0.064  31.763  0.00  0.00    +0.145 HD
ATOM    131 HD22 ASN A   7      26.198  -0.876  30.860  0.00  0.00    +0.145 HD
ATOM    132  OD1 ASN A   7      26.870   2.244  30.947  0.00  0.00    -0.275 OA
ENDBRANCH 127 128
ENDBRANCH   1 127
TORSDOF 51
REMARK  Name = ../refined-set-2016/3gnw/3gnw_pocket.pdb
REMARK  284 active torsions:
REMARK  status: ('A' for Active; 'I' for Inactive)
REMARK    1  A    between atoms: _1  and  _3
REMARK    2  A    between atoms: _3  and  _4
REMARK    3  A    between atoms: _3  and  _6
REMARK    4  A    between atoms: _6  and  _7
REMARK    5  A    between atoms: _7  and  _8
REMARK    6  A    between atoms: _8  and  _9
REMARK    7  A    between atoms: _9  and  _10
REMARK    8  A    between atoms: _14  and  _16
REMARK    9  A    between atoms: _16  and  _17
REMARK   10  A    between atoms: _16  and  _19
REMARK   11  A    between atoms: _19  and  _20
REMARK   12  A    between atoms: _20  and  _21
REMARK   13  A    between atoms: _24  and  _26
REMARK   14  A    between atoms: _26  and  _27
REMARK   15  A    between atoms: _26  and  _29
REMARK   16  A    between atoms: _29  and  _30
REMARK   17  A    between atoms: _36  and  _38
REMARK   18  A    between atoms: _38  and  _39
REMARK   19  A    between atoms: _38  and  _41
REMARK   20  A    between atoms: _41  and  _42
REMARK   21  A    between atoms: _42  and  _43
REMARK   22  A    between atoms: _43  and  _44
REMARK   23  A    between atoms: _53  and  _55
REMARK   24  A    between atoms: _55  and  _56
REMARK   25  A    between atoms: _55  and  _58
REMARK   26  A    between atoms: _58  and  _59
REMARK   27  A    between atoms: _62  and  _64
REMARK   28  A    between atoms: _64  and  _65
REMARK   29  A    between atoms: _67  and  _69
REMARK   30  A    between atoms: _69  and  _70
REMARK   31  A    between atoms: _69  and  _72
REMARK   32  A    between atoms: _72  and  _73
REMARK   33  A    between atoms: _79  and  _81
REMARK   34  A    between atoms: _81  and  _82
REMARK   35  A    between atoms: _81  and  _84
REMARK   36  A    between atoms: _84  and  _85
REMARK   37  A    between atoms: _90  and  _91
REMARK   38  A    between atoms: _93  and  _95
REMARK   39  A    between atoms: _95  and  _96
REMARK   40  A    between atoms: _95  and  _98
REMARK   41  A    between atoms: _98  and  _99
REMARK   42  A    between atoms: _102  and  _103
REMARK   43  A    between atoms: _108  and  _110
REMARK   44  A    between atoms: _110  and  _111
REMARK   45  A    between atoms: _110  and  _113
REMARK   46  A    between atoms: _113  and  _114
REMARK   47  A    between atoms: _114  and  _115
REMARK   48  A    between atoms: _115  and  _116
REMARK   49  A    between atoms: _116  and  _117
REMARK   50  A    between atoms: _121  and  _123
REMARK   51  A    between atoms: _123  and  _124
REMARK   52  A    between atoms: _123  and  _126
REMARK   53  A    between atoms: _126  and  _127
REMARK   54  A    between atoms: _127  and  _128
REMARK   55  A    between atoms: _133  and  _135
REMARK   56  A    between atoms: _135  and  _136
REMARK   57  A    between atoms: _135  and  _138
REMARK   58  A    between atoms: _138  and  _139
REMARK   59  A    between atoms: _139  and  _140
REMARK   60  A    between atoms: _140  and  _141
REMARK   61  A    between atoms: _150  and  _152
REMARK   62  A    between atoms: _152  and  _153
REMARK   63  A    between atoms: _152  and  _155
REMARK   64  A    between atoms: _158  and  _160
REMARK   65  A    between atoms: _160  and  _161
REMARK   66  A    between atoms: _160  and  _163
REMARK   67  A    between atoms: _163  and  _164
REMARK   68  A    between atoms: _167  and  _169
REMARK   69  A    between atoms: _169  and  _170
REMARK   70  A    between atoms: _169  and  _172
REMARK   71  A    between atoms: _172  and  _173
REMARK   72  A    between atoms: _179  and  _181
REMARK   73  A    between atoms: _181  and  _182
REMARK   74  A    between atoms: _181  and  _184
REMARK   75  A    between atoms: _184  and  _185
REMARK   76  A    between atoms: _188  and  _190
REMARK   77  A    between atoms: _190  and  _191
REMARK   78  A    between atoms: _190  and  _193
REMARK   79  A    between atoms: _193  and  _194
REMARK   80  A    between atoms: _196  and  _198
REMARK   81  A    between atoms: _198  and  _199
REMARK   82  A    between atoms: _198  and  _201
REMARK   83  A    between atoms: _201  and  _202
REMARK   84  A    between atoms: _205  and  _207
REMARK   85  A    between atoms: _207  and  _208
REMARK   86  A    between atoms: _207  and  _210
REMARK   87  A    between atoms: _210  and  _211
REMARK   88  A    between atoms: _213  and  _215
REMARK   89  A    between atoms: _215  and  _216
REMARK   90  A    between atoms: _215  and  _218
REMARK   91  A    between atoms: _218  and  _219
REMARK   92  A    between atoms: _224  and  _226
REMARK   93  A    between atoms: _226  and  _227
REMARK   94  A    between atoms: _226  and  _229
REMARK   95  A    between atoms: _229  and  _230
REMARK   96  A    between atoms: _233  and  _235
REMARK   97  A    between atoms: _235  and  _236
REMARK   98  A    between atoms: _235  and  _238
REMARK   99  A    between atoms: _238  and  _239
REMARK  100  A    between atoms: _244  and  _246
REMARK  101  A    between atoms: _246  and  _247
REMARK  102  A    between atoms: _249  and  _251
REMARK  103  A    between atoms: _251  and  _252
REMARK  104  A    between atoms: _251  and  _254
REMARK  105  A    between atoms: _254  and  _255
REMARK  106  A    between atoms: _258  and  _260
REMARK  107  A    between atoms: _260  and  _261
REMARK  108  A    between atoms: _260  and  _263
REMARK  109  A    between atoms: _263  and  _264
REMARK  110  A    between atoms: _267  and  _269
REMARK  111  A    between atoms: _269  and  _270
REMARK  112  A    between atoms: _269  and  _272
REMARK  113  A    between atoms: _272  and  _273
REMARK  114  A    between atoms: _276  and  _278
REMARK  115  A    between atoms: _278  and  _279
REMARK  116  A    between atoms: _278  and  _281
REMARK  117  A    between atoms: _281  and  _282
REMARK  118  A    between atoms: _284  and  _286
REMARK  119  A    between atoms: _286  and  _287
REMARK  120  A    between atoms: _286  and  _289
REMARK  121  A    between atoms: _291  and  _293
REMARK  122  A    between atoms: _293  and  _294
REMARK  123  A    between atoms: _293  and  _296
REMARK  124  A    between atoms: _296  and  _297
REMARK  125  A    between atoms: _299  and  _301
REMARK  126  A    between atoms: _301  and  _302
REMARK  127  A    between atoms: _301  and  _304
REMARK  128  A    between atoms: _304  and  _305
REMARK  129  A    between atoms: _307  and  _309
REMARK  130  A    between atoms: _309  and  _310
REMARK  131  A    between atoms: _309  and  _312
REMARK  132  A    between atoms: _312  and  _313
REMARK  133  A    between atoms: _318  and  _320
REMARK  134  A    between atoms: _320  and  _321
REMARK  135  A    between atoms: _320  and  _323
REMARK  136  A    between atoms: _323  and  _324
REMARK  137  A    between atoms: _329  and  _330
REMARK  138  A    between atoms: _332  and  _334
REMARK  139  A    between atoms: _334  and  _335
REMARK  140  A    between atoms: _334  and  _337
REMARK  141  A    between atoms: _337  and  _338
REMARK  142  A    between atoms: _341  and  _343
REMARK  143  A    between atoms: _343  and  _344
REMARK  144  A    between atoms: _343  and  _346
REMARK  145  A    between atoms: _346  and  _347
REMARK  146  A    between atoms: _350  and  _352
REMARK  147  A    between atoms: _352  and  _353
REMARK  148  A    between atoms: _352  and  _355
REMARK  149  A    between atoms: _355  and  _356
REMARK  150  A    between atoms: _356  and  _357
REMARK  151  A    between atoms: _357  and  _358
REMARK  152  A    between atoms: _367  and  _369
REMARK  153  A    between atoms: _369  and  _370
REMARK  154  A    between atoms: _369  and  _372
REMARK  155  A    between atoms: _372  and  _373
REMARK  156  A    between atoms: _377  and  _378
REMARK  157  A    between atoms: _383  and  _385
REMARK  158  A    between atoms: _385  and  _386
REMARK  159  A    between atoms: _385  and  _388
REMARK  160  A    between atoms: _388  and  _389
REMARK  161  A    between atoms: _389  and  _390
REMARK  162  A    between atoms: _390  and  _391
REMARK  163  A    between atoms: _400  and  _402
REMARK  164  A    between atoms: _402  and  _403
REMARK  165  A    between atoms: _402  and  _405
REMARK  166  A    between atoms: _405  and  _406
REMARK  167  A    between atoms: _406  and  _407
REMARK  168  A    between atoms: _410  and  _412
REMARK  169  A    between atoms: _412  and  _413
REMARK  170  A    between atoms: _412  and  _415
REMARK  171  A    between atoms: _415  and  _416
REMARK  172  A    between atoms: _419  and  _421
REMARK  173  A    between atoms: _421  and  _422
REMARK  174  A    between atoms: _421  and  _424
REMARK  175  A    between atoms: _424  and  _425
REMARK  176  A    between atoms: _430  and  _432
REMARK  177  A    between atoms: _432  and  _433
REMARK  178  A    between atoms: _432  and  _435
REMARK  179  A    between atoms: _435  and  _436
REMARK  180  A    between atoms: _438  and  _440
REMARK  181  A    between atoms: _440  and  _441
REMARK  182  A    between atoms: _440  and  _443
REMARK  183  A    between atoms: _443  and  _444
REMARK  184  A    between atoms: _454  and  _456
REMARK  185  A    between atoms: _456  and  _457
REMARK  186  A    between atoms: _456  and  _459
REMARK  187  A    between atoms: _459  and  _460
REMARK  188  A    between atoms: _463  and  _465
REMARK  189  A    between atoms: _465  and  _466
REMARK  190  A    between atoms: _468  and  _470
REMARK  191  A    between atoms: _470  and  _471
REMARK  192  A    between atoms: _470  and  _473
REMARK  193  A    between atoms: _473  and  _474
REMARK  194  A    between atoms: _479  and  _481
REMARK  195  A    between atoms: _481  and  _482
REMARK  196  A    between atoms: _481  and  _484
REMARK  197  A    between atoms: _484  and  _485
REMARK  198  A    between atoms: _488  and  _490
REMARK  199  A    between atoms: _490  and  _491
REMARK  200  A    between atoms: _490  and  _493
REMARK  201  A    between atoms: _493  and  _494
REMARK  202  A    between atoms: _497  and  _499
REMARK  203  A    between atoms: _499  and  _500
REMARK  204  A    between atoms: _499  and  _502
REMARK  205  A    between atoms: _502  and  _503
REMARK  206  A    between atoms: _503  and  _504
REMARK  207  A    between atoms: _506  and  _508
REMARK  208  A    between atoms: _508  and  _509
REMARK  209  A    between atoms: _508  and  _511
REMARK  210  A    between atoms: _511  and  _512
REMARK  211  A    between atoms: _517  and  _518
REMARK  212  A    between atoms: _520  and  _522
REMARK  213  A    between atoms: _522  and  _523
REMARK  214  A    between atoms: _527  and  _528
REMARK  215  A    between atoms: _533  and  _535
REMARK  216  A    between atoms: _535  and  _536
REMARK  217  A    between atoms: _535  and  _538
REMARK  218  A    between atoms: _538  and  _539
REMARK  219  A    between atoms: _542  and  _544
REMARK  220  A    between atoms: _544  and  _545
REMARK  221  A    between atoms: _544  and  _547
REMARK  222  A    between atoms: _547  and  _548
REMARK  223  A    between atoms: _558  and  _560
REMARK  224  A    between atoms: _560  and  _561
REMARK  225  A    between atoms: _560  and  _563
REMARK  226  A    between atoms: _563  and  _564
REMARK  227  A    between atoms: _567  and  _569
REMARK  228  A    between atoms: _569  and  _570
REMARK  229  A    between atoms: _569  and  _572
REMARK  230  A    between atoms: _574  and  _576
REMARK  231  A    between atoms: _576  and  _577
REMARK  232  A    between atoms: _576  and  _579
REMARK  233  A    between atoms: _579  and  _580
REMARK  234  A    between atoms: _580  and  _581
REMARK  235  A    between atoms: _586  and  _588
REMARK  236  A    between atoms: _588  and  _589
REMARK  237  A    between atoms: _588  and  _591
REMARK  238  A    between atoms: _591  and  _592
REMARK  239  A    between atoms: _595  and  _597
REMARK  240  A    between atoms: _597  and  _598
REMARK  241  A    between atoms: _597  and  _600
REMARK  242  A    between atoms: _600  and  _601
REMARK  243  A    between atoms: _606  and  _607
REMARK  244  A    between atoms: _609  and  _611
REMARK  245  A    between atoms: _611  and  _612
REMARK  246  A    between atoms: _614  and  _616
REMARK  247  A    between atoms: _616  and  _617
REMARK  248  A    between atoms: _620  and  _622
REMARK  249  A    between atoms: _622  and  _623
REMARK  250  A    between atoms: _622  and  _625
REMARK  251  A    between atoms: _627  and  _629
REMARK  252  A    between atoms: _629  and  _630
REMARK  253  A    between atoms: _629  and  _632
REMARK  254  A    between atoms: _632  and  _633
REMARK  255  A    between atoms: _638  and  _639
REMARK  256  A    between atoms: _641  and  _643
REMARK  257  A    between atoms: _643  and  _644
REMARK  258  A    between atoms: _643  and  _646
REMARK  259  A    between atoms: _646  and  _647
REMARK  260  A    between atoms: _650  and  _652
REMARK  261  A    between atoms: _652  and  _653
REMARK  262  A    between atoms: _652  and  _655
REMARK  263  A    between atoms: _655  and  _656
REMARK  264  A    between atoms: _661  and  _663
REMARK  265  A    between atoms: _663  and  _664
REMARK  266  A    between atoms: _663  and  _666
REMARK  267  A    between atoms: _666  and  _667
REMARK  268  A    between atoms: _673  and  _675
REMARK  269  A    between atoms: _675  and  _676
REMARK  270  A    between atoms: _679  and  _681
REMARK  271  A    between atoms: _681  and  _682
REMARK  272  A    between atoms: _684  and  _686
REMARK  273  A    between atoms: _686  and  _687
REMARK  274  A    between atoms: _686  and  _689
REMARK  275  A    between atoms: _689  and  _690
REMARK  276  A    between atoms: _695  and  _696
REMARK  277  A    between atoms: _698  and  _700
REMARK  278  A    between atoms: _700  and  _701
REMARK  279  A    between atoms: _700  and  _703
REMARK  280  A    between atoms: _703  and  _704
REMARK  281  A    between atoms: _706  and  _708
REMARK  282  A    between atoms: _708  and  _709
REMARK  283  A    between atoms: _711  and  _713
REMARK  284  A    between atoms: _713  and  _714
REMARK                            x       y       z     vdW  Elec       q    Type
REMARK                         _______ _______ _______ _____ _____    ______ ____
ROOT
ATOM      1  CG  TRP A   1      29.418   1.400  22.796  0.00  0.00    -0.002 A 
ATOM      2  CD2 TRP A   1      28.942   1.512  24.137  0.00  0.00    +0.013 A 
ATOM      3  CE3 TRP A   1      28.132   0.701  24.955  0.00  0.00    +0.001 A 
ATOM      4  CZ3 TRP A   1      27.828   1.140  26.234  0.00  0.00    +0.000 A 
ATOM      5  CH2 TRP A   1      28.330   2.375  26.716  0.00  0.00    +0.001 A 
ATOM      6  CZ2 TRP A   1      29.118   3.186  25.928  0.00  0.00    +0.017 A 
ATOM      7  CE2 TRP A   1      29.415   2.741  24.640  0.00  0.00    +0.056 A 
ATOM      8  NE1 TRP A   1      30.156   3.336  23.651  0.00  0.00    -0.352 N 
ATOM      9  HE1 TRP A   1      30.630   4.259  23.726  0.00  0.00    +0.166 HD
ATOM     10  CD1 TRP A   1      30.173   2.529  22.559  0.00  0.00    +0.068 A 
ENDROOT
BRANCH   1  11
ATOM     11  CB  TRP A   1      29.178   0.258  21.860  0.00  0.00    +0.053 C 
BRANCH  11  12
ATOM     12  CA  TRP A   1      27.953   0.385  20.939  0.00  0.00    +0.137 C 
BRANCH  12  13
ATOM     13  N   TRP A   1      28.002   1.635  20.168  0.00  0.00    -0.239 NA
ATOM     14  H   TRP A   1      28.663   2.380  20.468  0.00  0.00    +0.142 HD
ENDBRANCH  12  13
BRANCH  12  15
ATOM     15  C   TRP A   1      26.626   0.176  21.701  0.00  0.00    +0.224 C 
ATOM     16  O   TRP A   1      26.053  -0.912  21.676  0.00  0.00    -0.287 OA
ENDBRANCH  12  15
ENDBRANCH  11  12
ENDBRANCH   1  11
TORSDOF 4
REMARK  Name = ../refined-set-2016/3gnw/3gnw_pocket.pdb
REMARK  284 active torsions:
REMARK  status: ('A' for Active; 'I' for Inactive)
REMARK    1  A    between atoms: _1  and  _3
REMARK    2  A    between atoms: _3  and  _4
REMARK    3  A    between atoms: _3  and  _6
REMARK    4  A    between atoms: _6  and  _7
REMARK    5  A    between atoms: _7  and  _8
REMARK    6  A    between atoms: _8  and  _9
REMARK    7  A    between atoms: _9  and  _10
REMARK    8  A    between atoms: _14  and  _16
REMARK    9  A    between atoms: _16  and  _17
REMARK   10  A    between atoms: _16  and  _19
REMARK   11  A    between atoms: _19  and  _20
REMARK   12  A    between atoms: _20  and  _21
REMARK   13  A    between atoms: _24  and  _26
REMARK   14  A    between atoms: _26  and  _27
REMARK   15  A    between atoms: _26  and  _29
REMARK   16  A    between atoms: _29  and  _30
REMARK   17  A    between atoms: _36  and  _38
REMARK   18  A    between atoms: _38  and  _39
REMARK   19  A    between atoms: _38  and  _41
REMARK   20  A    between atoms: _41  and  _42
REMARK   21  A    between atoms: _42  and  _43
REMARK   22  A    between atoms: _43  and  _44
REMARK   23  A    between atoms: _53  and  _55
REMARK   24  A    between atoms: _55  and  _56
REMARK   25  A    between atoms: _55  and  _58
REMARK   26  A    between atoms: _58  and  _59
REMARK   27  A    between atoms: _62  and  _64
REMARK   28  A    between atoms: _64  and  _65
REMARK   29  A    between atoms: _67  and  _69
REMARK   30  A    between atoms: _69  and  _70
REMARK   31  A    between atoms: _69  and  _72
REMARK   32  A    between atoms: _72  and  _73
REMARK   33  A    between atoms: _79  and  _81
REMARK   34  A    between atoms: _81  and  _82
REMARK   35  A    between atoms: _81  and  _84
REMARK   36  A    between atoms: _84  and  _85
REMARK   37  A    between atoms: _90  and  _91
REMARK   38  A    between atoms: _93  and  _95
REMARK   39  A    between atoms: _95  and  _96
REMARK   40  A    between atoms: _95  and  _98
REMARK   41  A    between atoms: _98  and  _99
REMARK   42  A    between atoms: _102  and  _103
REMARK   43  A    between atoms: _108  and  _110
REMARK   44  A    between atoms: _110  and  _111
REMARK   45  A    between atoms: _110  and  _113
REMARK   46  A    between atoms: _113  and  _114
REMARK   47  A    between atoms: _114  and  _115
REMARK   48  A    between atoms: _115  and  _116
REMARK   49  A    between atoms: _116  and  _117
REMARK   50  A    between atoms: _121  and  _123
REMARK   51  A    between atoms: _123  and  _124
REMARK   52  A    between atoms: _123  and  _126
REMARK   53  A    between atoms: _126  and  _127
REMARK   54  A    between atoms: _127  and  _128
REMARK   55  A    between atoms: _133  and  _135
REMARK   56  A    between atoms: _135  and  _136
REMARK   57  A    between atoms: _135  and  _138
REMARK   58  A    between atoms: _138  and  _139
REMARK   59  A    between atoms: _139  and  _140
REMARK   60  A    between atoms: _140  and  _141
REMARK   61  A    between atoms: _150  and  _152
REMARK   62  A    between atoms: _152  and  _153
REMARK   63  A    between atoms: _152  and  _155
REMARK   64  A    between atoms: _158  and  _160
REMARK   65  A    between atoms: _160  and  _161
REMARK   66  A    between atoms: _160  and  _163
REMARK   67  A    between atoms: _163  and  _164
REMARK   68  A    between atoms: _167  and  _169
REMARK   69  A    between atoms: _169  and  _170
REMARK   70  A    between atoms: _169  and  _172
REMARK   71  A    between atoms: _172  and  _173
REMARK   72  A    between atoms: _179  and  _181
REMARK   73  A    between atoms: _181  and  _182
REMARK   74  A    between atoms: _181  and  _184
REMARK   75  A    between atoms: _184  and  _185
REMARK   76  A    between atoms: _188  and  _190
REMARK   77  A    between atoms: _190  and  _191
REMARK   78  A    between atoms: _190  and  _193
REMARK   79  A    between atoms: _193  and  _194
REMARK   80  A    between atoms: _196  and  _198
REMARK   81  A    between atoms: _198  and  _199
REMARK   82  A    between atoms: _198  and  _201
REMARK   83  A    between atoms: _201  and  _202
REMARK   84  A    between atoms: _205  and  _207
REMARK   85  A    between atoms: _207  and  _208
REMARK   86  A    between atoms: _207  and  _210
REMARK   87  A    between atoms: _210  and  _211
REMARK   88  A    between atoms: _213  and  _215
REMARK   89  A    between atoms: _215  and  _216
REMARK   90  A    between atoms: _215  and  _218
REMARK   91  A    between atoms: _218  and  _219
REMARK   92  A    between atoms: _224  and  _226
REMARK   93  A    between atoms: _226  and  _227
REMARK   94  A    between atoms: _226  and  _229
REMARK   95  A    between atoms: _229  and  _230
REMARK   96  A    between atoms: _233  and  _235
REMARK   97  A    between atoms: _235  and  _236
REMARK   98  A    between atoms: _235  and  _238
REMARK   99  A    between atoms: _238  and  _239
REMARK  100  A    between atoms: _244  and  _246
REMARK  101  A    between atoms: _246  and  _247
REMARK  102  A    between atoms: _249  and  _251
REMARK  103  A    between atoms: _251  and  _252
REMARK  104  A    between atoms: _251  and  _254
REMARK  105  A    between atoms: _254  and  _255
REMARK  106  A    between atoms: _258  and  _260
REMARK  107  A    between atoms: _260  and  _261
REMARK  108  A    between atoms: _260  and  _263
REMARK  109  A    between atoms: _263  and  _264
REMARK  110  A    between atoms: _267  and  _269
REMARK  111  A    between atoms: _269  and  _270
REMARK  112  A    between atoms: _269  and  _272
REMARK  113  A    between atoms: _272  and  _273
REMARK  114  A    between atoms: _276  and  _278
REMARK  115  A    between atoms: _278  and  _279
REMARK  116  A    between atoms: _278  and  _281
REMARK  117  A    between atoms: _281  and  _282
REMARK  118  A    between atoms: _284  and  _286
REMARK  119  A    between atoms: _286  and  _287
REMARK  120  A    between atoms: _286  and  _289
REMARK  121  A    between atoms: _291  and  _293
REMARK  122  A    between atoms: _293  and  _294
REMARK  123  A    between atoms: _293  and  _296
REMARK  124  A    between atoms: _296  and  _297
REMARK  125  A    between atoms: _299  and  _301
REMARK  126  A    between atoms: _301  and  _302
REMARK  127  A    between atoms: _301  and  _304
REMARK  128  A    between atoms: _304  and  _305
REMARK  129  A    between atoms: _307  and  _309
REMARK  130  A    between atoms: _309  and  _310
REMARK  131  A    between atoms: _309  and  _312
REMARK  132  A    between atoms: _312  and  _313
REMARK  133  A    between atoms: _318  and  _320
REMARK  134  A    between atoms: _320  and  _321
REMARK  135  A    between atoms: _320  and  _323
REMARK  136  A    between atoms: _323  and  _324
REMARK  137  A    between atoms: _329  and  _330
REMARK  138  A    between atoms: _332  and  _334
REMARK  139  A    between atoms: _334  and  _335
REMARK  140  A    between atoms: _334  and  _337
REMARK  141  A    between atoms: _337  and  _338
REMARK  142  A    between atoms: _341  and  _343
REMARK  143  A    between atoms: _343  and  _344
REMARK  144  A    between atoms: _343  and  _346
REMARK  145  A    between atoms: _346  and  _347
REMARK  146  A    between atoms: _350  and  _352
REMARK  147  A    between atoms: _352  and  _353
REMARK  148  A    between atoms: _352  and  _355
REMARK  149  A    between atoms: _355  and  _356
REMARK  150  A    between atoms: _356  and  _357
REMARK  151  A    between atoms: _357  and  _358
REMARK  152  A    between atoms: _367  and  _369
REMARK  153  A    between atoms: _369  and  _370
REMARK  154  A    between atoms: _369  and  _372
REMARK  155  A    between atoms: _372  and  _373
REMARK  156  A    between atoms: _377  and  _378
REMARK  157  A    between atoms: _383  and  _385
REMARK  158  A    between atoms: _385  and  _386
REMARK  159  A    between atoms: _385  and  _388
REMARK  160  A    between atoms: _388  and  _389
REMARK  161  A    between atoms: _389  and  _390
REMARK  162  A    between atoms: _390  and  _391
REMARK  163  A    between atoms: _400  and  _402
REMARK  164  A    between atoms: _402  and  _403
REMARK  165  A    between atoms: _402  and  _405
REMARK  166  A    between atoms: _405  and  _406
REMARK  167  A    between atoms: _406  and  _407
REMARK  168  A    between atoms: _410  and  _412
REMARK  169  A    between atoms: _412  and  _413
REMARK  170  A    between atoms: _412  and  _415
REMARK  171  A    between atoms: _415  and  _416
REMARK  172  A    between atoms: _419  and  _421
REMARK  173  A    between atoms: _421  and  _422
REMARK  174  A    between atoms: _421  and  _424
REMARK  175  A    between atoms: _424  and  _425
REMARK  176  A    between atoms: _430  and  _432
REMARK  177  A    between atoms: _432  and  _433
REMARK  178  A    between atoms: _432  and  _435
REMARK  179  A    between atoms: _435  and  _436
REMARK  180  A    between atoms: _438  and  _440
REMARK  181  A    between atoms: _440  and  _441
REMARK  182  A    between atoms: _440  and  _443
REMARK  183  A    between atoms: _443  and  _444
REMARK  184  A    between atoms: _454  and  _456
REMARK  185  A    between atoms: _456  and  _457
REMARK  186  A    between atoms: _456  and  _459
REMARK  187  A    between atoms: _459  and  _460
REMARK  188  A    between atoms: _463  and  _465
REMARK  189  A    between atoms: _465  and  _466
REMARK  190  A    between atoms: _468  and  _470
REMARK  191  A    between atoms: _470  and  _471
REMARK  192  A    between atoms: _470  and  _473
REMARK  193  A    between atoms: _473  and  _474
REMARK  194  A    between atoms: _479  and  _481
REMARK  195  A    between atoms: _481  and  _482
REMARK  196  A    between atoms: _481  and  _484
REMARK  197  A    between atoms: _484  and  _485
REMARK  198  A    between atoms: _488  and  _490
REMARK  199  A    between atoms: _490  and  _491
REMARK  200  A    between atoms: _490  and  _493
REMARK  201  A    between atoms: _493  and  _494
REMARK  202  A    between atoms: _497  and  _499
REMARK  203  A    between atoms: _499  and  _500
REMARK  204  A    between atoms: _499  and  _502
REMARK  205  A    between atoms: _502  and  _503
REMARK  206  A    between atoms: _503  and  _504
REMARK  207  A    between atoms: _506  and  _508
REMARK  208  A    between atoms: _508  and  _509
REMARK  209  A    between atoms: _508  and  _511
REMARK  210  A    between atoms: _511  and  _512
REMARK  211  A    between atoms: _517  and  _518
REMARK  212  A    between atoms: _520  and  _522
REMARK  213  A    between atoms: _522  and  _523
REMARK  214  A    between atoms: _527  and  _528
REMARK  215  A    between atoms: _533  and  _535
REMARK  216  A    between atoms: _535  and  _536
REMARK  217  A    between atoms: _535  and  _538
REMARK  218  A    between atoms: _538  and  _539
REMARK  219  A    between atoms: _542  and  _544
REMARK  220  A    between atoms: _544  and  _545
REMARK  221  A    between atoms: _544  and  _547
REMARK  222  A    between atoms: _547  and  _548
REMARK  223  A    between atoms: _558  and  _560
REMARK  224  A    between atoms: _560  and  _561
REMARK  225  A    between atoms: _560  and  _563
REMARK  226  A    between atoms: _563  and  _564
REMARK  227  A    between atoms: _567  and  _569
REMARK  228  A    between atoms: _569  and  _570
REMARK  229  A    between atoms: _569  and  _572
REMARK  230  A    between atoms: _574  and  _576
REMARK  231  A    between atoms: _576  and  _577
REMARK  232  A    between atoms: _576  and  _579
REMARK  233  A    between atoms: _579  and  _580
REMARK  234  A    between atoms: _580  and  _581
REMARK  235  A    between atoms: _586  and  _588
REMARK  236  A    between atoms: _588  and  _589
REMARK  237  A    between atoms: _588  and  _591
REMARK  238  A    between atoms: _591  and  _592
REMARK  239  A    between atoms: _595  and  _597
REMARK  240  A    between atoms: _597  and  _598
REMARK  241  A    between atoms: _597  and  _600
REMARK  242  A    between atoms: _600  and  _601
REMARK  243  A    between atoms: _606  and  _607
REMARK  244  A    between atoms: _609  and  _611
REMARK  245  A    between atoms: _611  and  _612
REMARK  246  A    between atoms: _614  and  _616
REMARK  247  A    between atoms: _616  and  _617
REMARK  248  A    between atoms: _620  and  _622
REMARK  249  A    between atoms: _622  and  _623
REMARK  250  A    between atoms: _622  and  _625
REMARK  251  A    between atoms: _627  and  _629
REMARK  252  A    between atoms: _629  and  _630
REMARK  253  A    between atoms: _629  and  _632
REMARK  254  A    between atoms: _632  and  _633
REMARK  255  A    between atoms: _638  and  _639
REMARK  256  A    between atoms: _641  and  _643
REMARK  257  A    between atoms: _643  and  _644
REMARK  258  A    between atoms: _643  and  _646
REMARK  259  A    between atoms: _646  and  _647
REMARK  260  A    between atoms: _650  and  _652
REMARK  261  A    between atoms: _652  and  _653
REMARK  262  A    between atoms: _652  and  _655
REMARK  263  A    between atoms: _655  and  _656
REMARK  264  A    between atoms: _661  and  _663
REMARK  265  A    between atoms: _663  and  _664
REMARK  266  A    between atoms: _663  and  _666
REMARK  267  A    between atoms: _666  and  _667
REMARK  268  A    between atoms: _673  and  _675
REMARK  269  A    between atoms: _675  and  _676
REMARK  270  A    between atoms: _679  and  _681
REMARK  271  A    between atoms: _681  and  _682
REMARK  272  A    between atoms: _684  and  _686
REMARK  273  A    between atoms: _686  and  _687
REMARK  274  A    between atoms: _686  and  _689
REMARK  275  A    between atoms: _689  and  _690
REMARK  276  A    between atoms: _695  and  _696
REMARK  277  A    between atoms: _698  and  _700
REMARK  278  A    between atoms: _700  and  _701
REMARK  279  A    between atoms: _700  and  _703
REMARK  280  A    between atoms: _703  and  _704
REMARK  281  A    between atoms: _706  and  _708
REMARK  282  A    between atoms: _708  and  _709
REMARK  283  A    between atoms: _711  and  _713
REMARK  284  A    between atoms: _713  and  _714
REMARK                            x       y       z     vdW  Elec       q    Type
REMARK                         _______ _______ _______ _____ _____    ______ ____
ROOT
ATOM      1  CA  LEU A   1      22.977  -3.278  23.805  0.00  0.00    +0.133 C 
ENDROOT
BRANCH   1   2
ATOM      2  N   LEU A   1      23.814  -3.178  22.596  0.00  0.00    -0.239 NA
ATOM      3  H   LEU A   1      24.417  -2.343  22.455  0.00  0.00    +0.142 HD
ENDBRANCH   1   2
BRANCH   1   4
ATOM      4  C   LEU A   1      21.459  -3.251  23.508  0.00  0.00    +0.224 C 
ATOM      5  O   LEU A   1      20.694  -4.071  24.015  0.00  0.00    -0.287 OA
ENDBRANCH   1   4
BRANCH   1   6
ATOM      6  CB  LEU A   1      23.359  -2.184  24.807  0.00  0.00    +0.025 C 
BRANCH   6   7
ATOM      7  CG  LEU A   1      24.308  -2.451  25.995  0.00  0.00    +0.002 C 
ATOM      8  CD2 LEU A   1      25.085  -1.216  26.346  0.00  0.00    +0.000 C 
ATOM      9  CD1 LEU A   1      25.247  -3.654  25.907  0.00  0.00    +0.000 C 
ENDBRANCH   6   7
ENDBRANCH   1   6
TORSDOF 4
REMARK  Name = ../refined-set-2016/3gnw/3gnw_pocket.pdb
REMARK  284 active torsions:
REMARK  status: ('A' for Active; 'I' for Inactive)
REMARK    1  A    between atoms: _1  and  _3
REMARK    2  A    between atoms: _3  and  _4
REMARK    3  A    between atoms: _3  and  _6
REMARK    4  A    between atoms: _6  and  _7
REMARK    5  A    between atoms: _7  and  _8
REMARK    6  A    between atoms: _8  and  _9
REMARK    7  A    between atoms: _9  and  _10
REMARK    8  A    between atoms: _14  and  _16
REMARK    9  A    between atoms: _16  and  _17
REMARK   10  A    between atoms: _16  and  _19
REMARK   11  A    between atoms: _19  and  _20
REMARK   12  A    between atoms: _20  and  _21
REMARK   13  A    between atoms: _24  and  _26
REMARK   14  A    between atoms: _26  and  _27
REMARK   15  A    between atoms: _26  and  _29
REMARK   16  A    between atoms: _29  and  _30
REMARK   17  A    between atoms: _36  and  _38
REMARK   18  A    between atoms: _38  and  _39
REMARK   19  A    between atoms: _38  and  _41
REMARK   20  A    between atoms: _41  and  _42
REMARK   21  A    between atoms: _42  and  _43
REMARK   22  A    between atoms: _43  and  _44
REMARK   23  A    between atoms: _53  and  _55
REMARK   24  A    between atoms: _55  and  _56
REMARK   25  A    between atoms: _55  and  _58
REMARK   26  A    between atoms: _58  and  _59
REMARK   27  A    between atoms: _62  and  _64
REMARK   28  A    between atoms: _64  and  _65
REMARK   29  A    between atoms: _67  and  _69
REMARK   30  A    between atoms: _69  and  _70
REMARK   31  A    between atoms: _69  and  _72
REMARK   32  A    between atoms: _72  and  _73
REMARK   33  A    between atoms: _79  and  _81
REMARK   34  A    between atoms: _81  and  _82
REMARK   35  A    between atoms: _81  and  _84
REMARK   36  A    between atoms: _84  and  _85
REMARK   37  A    between atoms: _90  and  _91
REMARK   38  A    between atoms: _93  and  _95
REMARK   39  A    between atoms: _95  and  _96
REMARK   40  A    between atoms: _95  and  _98
REMARK   41  A    between atoms: _98  and  _99
REMARK   42  A    between atoms: _102  and  _103
REMARK   43  A    between atoms: _108  and  _110
REMARK   44  A    between atoms: _110  and  _111
REMARK   45  A    between atoms: _110  and  _113
REMARK   46  A    between atoms: _113  and  _114
REMARK   47  A    between atoms: _114  and  _115
REMARK   48  A    between atoms: _115  and  _116
REMARK   49  A    between atoms: _116  and  _117
REMARK   50  A    between atoms: _121  and  _123
REMARK   51  A    between atoms: _123  and  _124
REMARK   52  A    between atoms: _123  and  _126
REMARK   53  A    between atoms: _126  and  _127
REMARK   54  A    between atoms: _127  and  _128
REMARK   55  A    between atoms: _133  and  _135
REMARK   56  A    between atoms: _135  and  _136
REMARK   57  A    between atoms: _135  and  _138
REMARK   58  A    between atoms: _138  and  _139
REMARK   59  A    between atoms: _139  and  _140
REMARK   60  A    between atoms: _140  and  _141
REMARK   61  A    between atoms: _150  and  _152
REMARK   62  A    between atoms: _152  and  _153
REMARK   63  A    between atoms: _152  and  _155
REMARK   64  A    between atoms: _158  and  _160
REMARK   65  A    between atoms: _160  and  _161
REMARK   66  A    between atoms: _160  and  _163
REMARK   67  A    between atoms: _163  and  _164
REMARK   68  A    between atoms: _167  and  _169
REMARK   69  A    between atoms: _169  and  _170
REMARK   70  A    between atoms: _169  and  _172
REMARK   71  A    between atoms: _172  and  _173
REMARK   72  A    between atoms: _179  and  _181
REMARK   73  A    between atoms: _181  and  _182
REMARK   74  A    between atoms: _181  and  _184
REMARK   75  A    between atoms: _184  and  _185
REMARK   76  A    between atoms: _188  and  _190
REMARK   77  A    between atoms: _190  and  _191
REMARK   78  A    between atoms: _190  and  _193
REMARK   79  A    between atoms: _193  and  _194
REMARK   80  A    between atoms: _196  and  _198
REMARK   81  A    between atoms: _198  and  _199
REMARK   82  A    between atoms: _198  and  _201
REMARK   83  A    between atoms: _201  and  _202
REMARK   84  A    between atoms: _205  and  _207
REMARK   85  A    between atoms: _207  and  _208
REMARK   86  A    between atoms: _207  and  _210
REMARK   87  A    between atoms: _210  and  _211
REMARK   88  A    between atoms: _213  and  _215
REMARK   89  A    between atoms: _215  and  _216
REMARK   90  A    between atoms: _215  and  _218
REMARK   91  A    between atoms: _218  and  _219
REMARK   92  A    between atoms: _224  and  _226
REMARK   93  A    between atoms: _226  and  _227
REMARK   94  A    between atoms: _226  and  _229
REMARK   95  A    between atoms: _229  and  _230
REMARK   96  A    between atoms: _233  and  _235
REMARK   97  A    between atoms: _235  and  _236
REMARK   98  A    between atoms: _235  and  _238
REMARK   99  A    between atoms: _238  and  _239
REMARK  100  A    between atoms: _244  and  _246
REMARK  101  A    between atoms: _246  and  _247
REMARK  102  A    between atoms: _249  and  _251
REMARK  103  A    between atoms: _251  and  _252
REMARK  104  A    between atoms: _251  and  _254
REMARK  105  A    between atoms: _254  and  _255
REMARK  106  A    between atoms: _258  and  _260
REMARK  107  A    between atoms: _260  and  _261
REMARK  108  A    between atoms: _260  and  _263
REMARK  109  A    between atoms: _263  and  _264
REMARK  110  A    between atoms: _267  and  _269
REMARK  111  A    between atoms: _269  and  _270
REMARK  112  A    between atoms: _269  and  _272
REMARK  113  A    between atoms: _272  and  _273
REMARK  114  A    between atoms: _276  and  _278
REMARK  115  A    between atoms: _278  and  _279
REMARK  116  A    between atoms: _278  and  _281
REMARK  117  A    between atoms: _281  and  _282
REMARK  118  A    between atoms: _284  and  _286
REMARK  119  A    between atoms: _286  and  _287
REMARK  120  A    between atoms: _286  and  _289
REMARK  121  A    between atoms: _291  and  _293
REMARK  122  A    between atoms: _293  and  _294
REMARK  123  A    between atoms: _293  and  _296
REMARK  124  A    between atoms: _296  and  _297
REMARK  125  A    between atoms: _299  and  _301
REMARK  126  A    between atoms: _301  and  _302
REMARK  127  A    between atoms: _301  and  _304
REMARK  128  A    between atoms: _304  and  _305
REMARK  129  A    between atoms: _307  and  _309
REMARK  130  A    between atoms: _309  and  _310
REMARK  131  A    between atoms: _309  and  _312
REMARK  132  A    between atoms: _312  and  _313
REMARK  133  A    between atoms: _318  and  _320
REMARK  134  A    between atoms: _320  and  _321
REMARK  135  A    between atoms: _320  and  _323
REMARK  136  A    between atoms: _323  and  _324
REMARK  137  A    between atoms: _329  and  _330
REMARK  138  A    between atoms: _332  and  _334
REMARK  139  A    between atoms: _334  and  _335
REMARK  140  A    between atoms: _334  and  _337
REMARK  141  A    between atoms: _337  and  _338
REMARK  142  A    between atoms: _341  and  _343
REMARK  143  A    between atoms: _343  and  _344
REMARK  144  A    between atoms: _343  and  _346
REMARK  145  A    between atoms: _346  and  _347
REMARK  146  A    between atoms: _350  and  _352
REMARK  147  A    between atoms: _352  and  _353
REMARK  148  A    between atoms: _352  and  _355
REMARK  149  A    between atoms: _355  and  _356
REMARK  150  A    between atoms: _356  and  _357
REMARK  151  A    between atoms: _357  and  _358
REMARK  152  A    between atoms: _367  and  _369
REMARK  153  A    between atoms: _369  and  _370
REMARK  154  A    between atoms: _369  and  _372
REMARK  155  A    between atoms: _372  and  _373
REMARK  156  A    between atoms: _377  and  _378
REMARK  157  A    between atoms: _383  and  _385
REMARK  158  A    between atoms: _385  and  _386
REMARK  159  A    between atoms: _385  and  _388
REMARK  160  A    between atoms: _388  and  _389
REMARK  161  A    between atoms: _389  and  _390
REMARK  162  A    between atoms: _390  and  _391
REMARK  163  A    between atoms: _400  and  _402
REMARK  164  A    between atoms: _402  and  _403
REMARK  165  A    between atoms: _402  and  _405
REMARK  166  A    between atoms: _405  and  _406
REMARK  167  A    between atoms: _406  and  _407
REMARK  168  A    between atoms: _410  and  _412
REMARK  169  A    between atoms: _412  and  _413
REMARK  170  A    between atoms: _412  and  _415
REMARK  171  A    between atoms: _415  and  _416
REMARK  172  A    between atoms: _419  and  _421
REMARK  173  A    between atoms: _421  and  _422
REMARK  174  A    between atoms: _421  and  _424
REMARK  175  A    between atoms: _424  and  _425
REMARK  176  A    between atoms: _430  and  _432
REMARK  177  A    between atoms: _432  and  _433
REMARK  178  A    between atoms: _432  and  _435
REMARK  179  A    between atoms: _435  and  _436
REMARK  180  A    between atoms: _438  and  _440
REMARK  181  A    between atoms: _440  and  _441
REMARK  182  A    between atoms: _440  and  _443
REMARK  183  A    between atoms: _443  and  _444
REMARK  184  A    between atoms: _454  and  _456
REMARK  185  A    between atoms: _456  and  _457
REMARK  186  A    between atoms: _456  and  _459
REMARK  187  A    between atoms: _459  and  _460
REMARK  188  A    between atoms: _463  and  _465
REMARK  189  A    between atoms: _465  and  _466
REMARK  190  A    between atoms: _468  and  _470
REMARK  191  A    between atoms: _470  and  _471
REMARK  192  A    between atoms: _470  and  _473
REMARK  193  A    between atoms: _473  and  _474
REMARK  194  A    between atoms: _479  and  _481
REMARK  195  A    between atoms: _481  and  _482
REMARK  196  A    between atoms: _481  and  _484
REMARK  197  A    between atoms: _484  and  _485
REMARK  198  A    between atoms: _488  and  _490
REMARK  199  A    between atoms: _490  and  _491
REMARK  200  A    between atoms: _490  and  _493
REMARK  201  A    between atoms: _493  and  _494
REMARK  202  A    between atoms: _497  and  _499
REMARK  203  A    between atoms: _499  and  _500
REMARK  204  A    between atoms: _499  and  _502
REMARK  205  A    between atoms: _502  and  _503
REMARK  206  A    between atoms: _503  and  _504
REMARK  207  A    between atoms: _506  and  _508
REMARK  208  A    between atoms: _508  and  _509
REMARK  209  A    between atoms: _508  and  _511
REMARK  210  A    between atoms: _511  and  _512
REMARK  211  A    between atoms: _517  and  _518
REMARK  212  A    between atoms: _520  and  _522
REMARK  213  A    between atoms: _522  and  _523
REMARK  214  A    between atoms: _527  and  _528
REMARK  215  A    between atoms: _533  and  _535
REMARK  216  A    between atoms: _535  and  _536
REMARK  217  A    between atoms: _535  and  _538
REMARK  218  A    between atoms: _538  and  _539
REMARK  219  A    between atoms: _542  and  _544
REMARK  220  A    between atoms: _544  and  _545
REMARK  221  A    between atoms: _544  and  _547
REMARK  222  A    between atoms: _547  and  _548
REMARK  223  A    between atoms: _558  and  _560
REMARK  224  A    between atoms: _560  and  _561
REMARK  225  A    between atoms: _560  and  _563
REMARK  226  A    between atoms: _563  and  _564
REMARK  227  A    between atoms: _567  and  _569
REMARK  228  A    between atoms: _569  and  _570
REMARK  229  A    between atoms: _569  and  _572
REMARK  230  A    between atoms: _574  and  _576
REMARK  231  A    between atoms: _576  and  _577
REMARK  232  A    between atoms: _576  and  _579
REMARK  233  A    between atoms: _579  and  _580
REMARK  234  A    between atoms: _580  and  _581
REMARK  235  A    between atoms: _586  and  _588
REMARK  236  A    between atoms: _588  and  _589
REMARK  237  A    between atoms: _588  and  _591
REMARK  238  A    between atoms: _591  and  _592
REMARK  239  A    between atoms: _595  and  _597
REMARK  240  A    between atoms: _597  and  _598
REMARK  241  A    between atoms: _597  and  _600
REMARK  242  A    between atoms: _600  and  _601
REMARK  243  A    between atoms: _606  and  _607
REMARK  244  A    between atoms: _609  and  _611
REMARK  245  A    between atoms: _611  and  _612
REMARK  246  A    between atoms: _614  and  _616
REMARK  247  A    between atoms: _616  and  _617
REMARK  248  A    between atoms: _620  and  _622
REMARK  249  A    between atoms: _622  and  _623
REMARK  250  A    between atoms: _622  and  _625
REMARK  251  A    between atoms: _627  and  _629
REMARK  252  A    between atoms: _629  and  _630
REMARK  253  A    between atoms: _629  and  _632
REMARK  254  A    between atoms: _632  and  _633
REMARK  255  A    between atoms: _638  and  _639
REMARK  256  A    between atoms: _641  and  _643
REMARK  257  A    between atoms: _643  and  _644
REMARK  258  A    between atoms: _643  and  _646
REMARK  259  A    between atoms: _646  and  _647
REMARK  260  A    between atoms: _650  and  _652
REMARK  261  A    between atoms: _652  and  _653
REMARK  262  A    between atoms: _652  and  _655
REMARK  263  A    between atoms: _655  and  _656
REMARK  264  A    between atoms: _661  and  _663
REMARK  265  A    between atoms: _663  and  _664
REMARK  266  A    between atoms: _663  and  _666
REMARK  267  A    between atoms: _666  and  _667
REMARK  268  A    between atoms: _673  and  _675
REMARK  269  A    between atoms: _675  and  _676
REMARK  270  A    between atoms: _679  and  _681
REMARK  271  A    between atoms: _681  and  _682
REMARK  272  A    between atoms: _684  and  _686
REMARK  273  A    between atoms: _686  and  _687
REMARK  274  A    between atoms: _686  and  _689
REMARK  275  A    between atoms: _689  and  _690
REMARK  276  A    between atoms: _695  and  _696
REMARK  277  A    between atoms: _698  and  _700
REMARK  278  A    between atoms: _700  and  _701
REMARK  279  A    between atoms: _700  and  _703
REMARK  280  A    between atoms: _703  and  _704
REMARK  281  A    between atoms: _706  and  _708
REMARK  282  A    between atoms: _708  and  _709
REMARK  283  A    between atoms: _711  and  _713
REMARK  284  A    between atoms: _713  and  _714
REMARK                            x       y       z     vdW  Elec       q    Type
REMARK                         _______ _______ _______ _____ _____    ______ ____
ROOT
ATOM      1  CA  TYR A   4      23.859   9.052  38.937  0.00  0.00    +0.153 C 
ENDROOT
BRANCH   1   2
ATOM      2  C   TYR A   4      23.723   8.431  40.352  0.00  0.00    +0.241 C 
ATOM      3  O   TYR A   4      23.555   9.138  41.347  0.00  0.00    -0.273 OA
ATOM      4  N   GLY A   5      23.803   7.106  40.420  0.00  0.00    -0.295 N 
ATOM      5  H   GLY A   5      23.796   6.549  39.542  0.00  0.00    +0.150 HD
BRANCH   4   6
ATOM      6  CA  GLY A   5      23.900   6.422  41.698  0.00  0.00    +0.176 C 
BRANCH   6   7
ATOM      7  C   GLY A   5      22.574   6.093  42.345  0.00  0.00    +0.243 C 
ATOM      8  O   GLY A   5      22.522   5.249  43.245  0.00  0.00    -0.273 OA
ATOM      9  N   ALA A   6      21.507   6.757  41.890  0.00  0.00    -0.297 N 
ATOM     10  H   ALA A   6      21.645   7.483  41.158  0.00  0.00    +0.150 HD
BRANCH   9  11
ATOM     11  CA  ALA A   6      20.164   6.506  42.376  0.00  0.00    +0.149 C 
ATOM     12  CB  ALA A   6      19.357   7.777  42.371  0.00  0.00    +0.031 C 
BRANCH  11  13
ATOM     13  C   ALA A   6      19.467   5.462  41.520  0.00  0.00    +0.241 C 
ATOM     14  N   CYS A   7      18.599   4.699  42.183  0.00  0.00    -0.296 N 
ATOM     15  H   CYS A   7      18.420   4.916  43.184  0.00  0.00    +0.150 HD
ATOM     16  O   ALA A   6      19.664   5.400  40.292  0.00  0.00    -0.273 OA
BRANCH  14  17
ATOM     17  CA  CYS A   7      17.893   3.589  41.591  0.00  0.00    +0.160 C 
BRANCH  17  18
ATOM     18  C   CYS A   7      16.497   3.993  41.063  0.00  0.00    +0.242 C 
ATOM     19  O   CYS A   7      15.725   4.663  41.741  0.00  0.00    -0.273 OA
ATOM     20  N   TYR A   8      16.219   3.565  39.830  0.00  0.00    -0.298 N 
ATOM     21  H   TYR A   8      16.952   3.020  39.333  0.00  0.00    +0.150 HD
BRANCH  20  22
ATOM     22  CA  TYR A   8      14.971   3.803  39.132  0.00  0.00    +0.141 C 
BRANCH  22  23
ATOM     23  C   TYR A   8      14.398   2.477  38.644  0.00  0.00    +0.227 C 
ATOM     24  O   TYR A   8      15.118   1.532  38.382  0.00  0.00    -0.286 OA
ENDBRANCH  22  23
BRANCH  22  25
ATOM     25  CB  TYR A   8      15.192   4.738  37.929  0.00  0.00    +0.054 C 
BRANCH  25  26
ATOM     26  CG  TYR A   8      15.680   6.115  38.333  0.00  0.00    -0.020 A 
ATOM     27  CD2 TYR A   8      14.777   7.154  38.559  0.00  0.00    -0.001 A 
ATOM     28  CE2 TYR A   8      15.217   8.406  38.960  0.00  0.00    +0.036 A 
ATOM     29  CZ  TYR A   8      16.567   8.627  39.144  0.00  0.00    +0.134 A 
ATOM     30  CE1 TYR A   8      17.481   7.625  38.913  0.00  0.00    +0.036 A 
ATOM     31  CD1 TYR A   8      17.040   6.374  38.521  0.00  0.00    -0.001 A 
BRANCH  29  32
ATOM     32  OH  TYR A   8      16.989   9.874  39.532  0.00  0.00    -0.506 OA
ATOM     33  HH  TYR A   8      17.975   9.874  39.621  0.00  0.00    +0.292 HD
ENDBRANCH  29  32
ENDBRANCH  25  26
ENDBRANCH  22  25
ENDBRANCH  20  22
ENDBRANCH  17  18
BRANCH  17  34
ATOM     34  CB  CYS A   7      17.779   2.440  42.614  0.00  0.00    +0.098 C 
ATOM     35  SG  CYS A   7      16.921   0.969  41.931  0.00  0.00    -0.080 S 
ENDBRANCH  17  34
ENDBRANCH  14  17
ENDBRANCH  11  13
ENDBRANCH   9  11
ENDBRANCH   6   7
ENDBRANCH   4   6
ENDBRANCH   1   2
BRANCH   1  38
ATOM     36  C   ILE A   3      21.870   7.901  38.133  0.00  0.00    +0.241 C 
ATOM     37  O   ILE A   3      21.229   8.198  39.126  0.00  0.00    -0.273 OA
ATOM     38  N   TYR A   4      23.123   8.294  37.934  0.00  0.00    -0.297 N 
ATOM     39  H   TYR A   4      23.592   8.054  37.037  0.00  0.00    +0.150 HD
BRANCH  36  40
ATOM     40  CA  ILE A   3      21.258   7.012  37.077  0.00  0.00    +0.149 C 
BRANCH  40  42
ATOM     41  C   GLN A   2      21.103   4.574  37.290  0.00  0.00    +0.241 C 
ATOM     42  N   ILE A   3      20.852   5.796  37.763  0.00  0.00    -0.297 N 
ATOM     43  H   ILE A   3      20.342   5.883  38.665  0.00  0.00    +0.150 HD
ATOM     44  O   GLN A   2      21.516   4.338  36.137  0.00  0.00    -0.273 OA
BRANCH  41  45
ATOM     45  CA  GLN A   2      20.793   3.445  38.269  0.00  0.00    +0.149 C 
BRANCH  45  48
ATOM     46  C   CYS A   1      19.214   1.670  37.834  0.00  0.00    +0.239 C 
ATOM     47  O   CYS A   1      18.453   2.035  38.734  0.00  0.00    -0.274 OA
ATOM     48  N   GLN A   2      20.370   2.254  37.583  0.00  0.00    -0.297 N 
ATOM     49  H   GLN A   2      20.997   1.839  36.864  0.00  0.00    +0.150 HD
BRANCH  46  50
ATOM     50  CA  CYS A   1      18.866   0.494  36.922  0.00  0.00    +0.156 C 
BRANCH  50  51
ATOM     51  N   CYS A   1      17.557   0.043  37.286  0.00  0.00    -0.237 NA
ATOM     52  H   CYS A   1      16.842   0.753  37.541  0.00  0.00    +0.142 HD
ENDBRANCH  50  51
BRANCH  50  53
ATOM     53  CB  CYS A   1      18.864   0.946  35.466  0.00  0.00    +0.095 C 
ATOM     54  SG  CYS A   1      17.755   2.353  35.125  0.00  0.00    -0.080 S 
ENDBRANCH  50  53
ENDBRANCH  46  50
ENDBRANCH  45  48
BRANCH  45  55
ATOM     55  CB  GLN A   2      22.000   3.134  39.143  0.00  0.00    +0.039 C 
BRANCH  55  56
ATOM     56  CG  GLN A   2      21.631   2.304  40.366  0.00  0.00    +0.087 C 
BRANCH  56  57
ATOM     57  CD  GLN A   2      22.846   1.803  41.089  0.00  0.00    +0.219 C 
ATOM     58  NE2 GLN A   2      22.914   2.061  42.396  0.00  0.00    -0.329 N 
ATOM     59 HE21 GLN A   2      23.732   1.733  42.949  0.00  0.00    +0.145 HD
ATOM     60 HE22 GLN A   2      22.150   2.590  42.862  0.00  0.00    +0.145 HD
ATOM     61  OE1 GLN A   2      23.721   1.181  40.483  0.00  0.00    -0.275 OA
ENDBRANCH  56  57
ENDBRANCH  55  56
ENDBRANCH  45  55
ENDBRANCH  41  45
ENDBRANCH  40  42
BRANCH  40  62
ATOM     62  CB  ILE A   3      20.063   7.695  36.374  0.00  0.00    +0.027 C 
ATOM     63  CG2 ILE A   3      20.485   8.971  35.647  0.00  0.00    +0.002 C 
BRANCH  62  64
ATOM     64  CG1 ILE A   3      19.449   6.721  35.352  0.00  0.00    +0.002 C 
ATOM     65  CD1 ILE A   3      18.105   7.170  34.836  0.00  0.00    +0.000 C 
ENDBRANCH  62  64
ENDBRANCH  40  62
ENDBRANCH  36  40
ENDBRANCH   1  38
BRANCH   1  66
ATOM     66  CB  TYR A   4      23.432  10.532  38.945  0.00  0.00    +0.055 C 
BRANCH  66  67
ATOM     67  CG  TYR A   4      23.858  11.357  37.739  0.00  0.00    -0.020 A 
ATOM     68  CD2 TYR A   4      23.306  12.629  37.510  0.00  0.00    -0.001 A 
ATOM     69  CE2 TYR A   4      23.720  13.409  36.416  0.00  0.00    +0.036 A 
ATOM     70  CZ  TYR A   4      24.698  12.921  35.535  0.00  0.00    +0.134 A 
ATOM     71  CE1 TYR A   4      25.246  11.663  35.746  0.00  0.00    +0.036 A 
ATOM     72  CD1 TYR A   4      24.843  10.900  36.843  0.00  0.00    -0.001 A 
BRANCH  70  73
ATOM     73  OH  TYR A   4      25.107  13.674  34.435  0.00  0.00    -0.506 OA
ATOM     74  HH  TYR A   4      24.329  13.847  33.847  0.00  0.00    +0.292 HD
ENDBRANCH  70  73
ENDBRANCH  66  67
ENDBRANCH   1  66
TORSDOF 29
REMARK  Name = ../refined-set-2016/3gnw/3gnw_pocket.pdb
REMARK  284 active torsions:
REMARK  status: ('A' for Active; 'I' for Inactive)
REMARK    1  A    between atoms: _1  and  _3
REMARK    2  A    between atoms: _3  and  _4
REMARK    3  A    between atoms: _3  and  _6
REMARK    4  A    between atoms: _6  and  _7
REMARK    5  A    between atoms: _7  and  _8
REMARK    6  A    between atoms: _8  and  _9
REMARK    7  A    between atoms: _9  and  _10
REMARK    8  A    between atoms: _14  and  _16
REMARK    9  A    between atoms: _16  and  _17
REMARK   10  A    between atoms: _16  and  _19
REMARK   11  A    between atoms: _19  and  _20
REMARK   12  A    between atoms: _20  and  _21
REMARK   13  A    between atoms: _24  and  _26
REMARK   14  A    between atoms: _26  and  _27
REMARK   15  A    between atoms: _26  and  _29
REMARK   16  A    between atoms: _29  and  _30
REMARK   17  A    between atoms: _36  and  _38
REMARK   18  A    between atoms: _38  and  _39
REMARK   19  A    between atoms: _38  and  _41
REMARK   20  A    between atoms: _41  and  _42
REMARK   21  A    between atoms: _42  and  _43
REMARK   22  A    between atoms: _43  and  _44
REMARK   23  A    between atoms: _53  and  _55
REMARK   24  A    between atoms: _55  and  _56
REMARK   25  A    between atoms: _55  and  _58
REMARK   26  A    between atoms: _58  and  _59
REMARK   27  A    between atoms: _62  and  _64
REMARK   28  A    between atoms: _64  and  _65
REMARK   29  A    between atoms: _67  and  _69
REMARK   30  A    between atoms: _69  and  _70
REMARK   31  A    between atoms: _69  and  _72
REMARK   32  A    between atoms: _72  and  _73
REMARK   33  A    between atoms: _79  and  _81
REMARK   34  A    between atoms: _81  and  _82
REMARK   35  A    between atoms: _81  and  _84
REMARK   36  A    between atoms: _84  and  _85
REMARK   37  A    between atoms: _90  and  _91
REMARK   38  A    between atoms: _93  and  _95
REMARK   39  A    between atoms: _95  and  _96
REMARK   40  A    between atoms: _95  and  _98
REMARK   41  A    between atoms: _98  and  _99
REMARK   42  A    between atoms: _102  and  _103
REMARK   43  A    between atoms: _108  and  _110
REMARK   44  A    between atoms: _110  and  _111
REMARK   45  A    between atoms: _110  and  _113
REMARK   46  A    between atoms: _113  and  _114
REMARK   47  A    between atoms: _114  and  _115
REMARK   48  A    between atoms: _115  and  _116
REMARK   49  A    between atoms: _116  and  _117
REMARK   50  A    between atoms: _121  and  _123
REMARK   51  A    between atoms: _123  and  _124
REMARK   52  A    between atoms: _123  and  _126
REMARK   53  A    between atoms: _126  and  _127
REMARK   54  A    between atoms: _127  and  _128
REMARK   55  A    between atoms: _133  and  _135
REMARK   56  A    between atoms: _135  and  _136
REMARK   57  A    between atoms: _135  and  _138
REMARK   58  A    between atoms: _138  and  _139
REMARK   59  A    between atoms: _139  and  _140
REMARK   60  A    between atoms: _140  and  _141
REMARK   61  A    between atoms: _150  and  _152
REMARK   62  A    between atoms: _152  and  _153
REMARK   63  A    between atoms: _152  and  _155
REMARK   64  A    between atoms: _158  and  _160
REMARK   65  A    between atoms: _160  and  _161
REMARK   66  A    between atoms: _160  and  _163
REMARK   67  A    between atoms: _163  and  _164
REMARK   68  A    between atoms: _167  and  _169
REMARK   69  A    between atoms: _169  and  _170
REMARK   70  A    between atoms: _169  and  _172
REMARK   71  A    between atoms: _172  and  _173
REMARK   72  A    between atoms: _179  and  _181
REMARK   73  A    between atoms: _181  and  _182
REMARK   74  A    between atoms: _181  and  _184
REMARK   75  A    between atoms: _184  and  _185
REMARK   76  A    between atoms: _188  and  _190
REMARK   77  A    between atoms: _190  and  _191
REMARK   78  A    between atoms: _190  and  _193
REMARK   79  A    between atoms: _193  and  _194
REMARK   80  A    between atoms: _196  and  _198
REMARK   81  A    between atoms: _198  and  _199
REMARK   82  A    between atoms: _198  and  _201
REMARK   83  A    between atoms: _201  and  _202
REMARK   84  A    between atoms: _205  and  _207
REMARK   85  A    between atoms: _207  and  _208
REMARK   86  A    between atoms: _207  and  _210
REMARK   87  A    between atoms: _210  and  _211
REMARK   88  A    between atoms: _213  and  _215
REMARK   89  A    between atoms: _215  and  _216
REMARK   90  A    between atoms: _215  and  _218
REMARK   91  A    between atoms: _218  and  _219
REMARK   92  A    between atoms: _224  and  _226
REMARK   93  A    between atoms: _226  and  _227
REMARK   94  A    between atoms: _226  and  _229
REMARK   95  A    between atoms: _229  and  _230
REMARK   96  A    between atoms: _233  and  _235
REMARK   97  A    between atoms: _235  and  _236
REMARK   98  A    between atoms: _235  and  _238
REMARK   99  A    between atoms: _238  and  _239
REMARK  100  A    between atoms: _244  and  _246
REMARK  101  A    between atoms: _246  and  _247
REMARK  102  A    between atoms: _249  and  _251
REMARK  103  A    between atoms: _251  and  _252
REMARK  104  A    between atoms: _251  and  _254
REMARK  105  A    between atoms: _254  and  _255
REMARK  106  A    between atoms: _258  and  _260
REMARK  107  A    between atoms: _260  and  _261
REMARK  108  A    between atoms: _260  and  _263
REMARK  109  A    between atoms: _263  and  _264
REMARK  110  A    between atoms: _267  and  _269
REMARK  111  A    between atoms: _269  and  _270
REMARK  112  A    between atoms: _269  and  _272
REMARK  113  A    between atoms: _272  and  _273
REMARK  114  A    between atoms: _276  and  _278
REMARK  115  A    between atoms: _278  and  _279
REMARK  116  A    between atoms: _278  and  _281
REMARK  117  A    between atoms: _281  and  _282
REMARK  118  A    between atoms: _284  and  _286
REMARK  119  A    between atoms: _286  and  _287
REMARK  120  A    between atoms: _286  and  _289
REMARK  121  A    between atoms: _291  and  _293
REMARK  122  A    between atoms: _293  and  _294
REMARK  123  A    between atoms: _293  and  _296
REMARK  124  A    between atoms: _296  and  _297
REMARK  125  A    between atoms: _299  and  _301
REMARK  126  A    between atoms: _301  and  _302
REMARK  127  A    between atoms: _301  and  _304
REMARK  128  A    between atoms: _304  and  _305
REMARK  129  A    between atoms: _307  and  _309
REMARK  130  A    between atoms: _309  and  _310
REMARK  131  A    between atoms: _309  and  _312
REMARK  132  A    between atoms: _312  and  _313
REMARK  133  A    between atoms: _318  and  _320
REMARK  134  A    between atoms: _320  and  _321
REMARK  135  A    between atoms: _320  and  _323
REMARK  136  A    between atoms: _323  and  _324
REMARK  137  A    between atoms: _329  and  _330
REMARK  138  A    between atoms: _332  and  _334
REMARK  139  A    between atoms: _334  and  _335
REMARK  140  A    between atoms: _334  and  _337
REMARK  141  A    between atoms: _337  and  _338
REMARK  142  A    between atoms: _341  and  _343
REMARK  143  A    between atoms: _343  and  _344
REMARK  144  A    between atoms: _343  and  _346
REMARK  145  A    between atoms: _346  and  _347
REMARK  146  A    between atoms: _350  and  _352
REMARK  147  A    between atoms: _352  and  _353
REMARK  148  A    between atoms: _352  and  _355
REMARK  149  A    between atoms: _355  and  _356
REMARK  150  A    between atoms: _356  and  _357
REMARK  151  A    between atoms: _357  and  _358
REMARK  152  A    between atoms: _367  and  _369
REMARK  153  A    between atoms: _369  and  _370
REMARK  154  A    between atoms: _369  and  _372
REMARK  155  A    between atoms: _372  and  _373
REMARK  156  A    between atoms: _377  and  _378
REMARK  157  A    between atoms: _383  and  _385
REMARK  158  A    between atoms: _385  and  _386
REMARK  159  A    between atoms: _385  and  _388
REMARK  160  A    between atoms: _388  and  _389
REMARK  161  A    between atoms: _389  and  _390
REMARK  162  A    between atoms: _390  and  _391
REMARK  163  A    between atoms: _400  and  _402
REMARK  164  A    between atoms: _402  and  _403
REMARK  165  A    between atoms: _402  and  _405
REMARK  166  A    between atoms: _405  and  _406
REMARK  167  A    between atoms: _406  and  _407
REMARK  168  A    between atoms: _410  and  _412
REMARK  169  A    between atoms: _412  and  _413
REMARK  170  A    between atoms: _412  and  _415
REMARK  171  A    between atoms: _415  and  _416
REMARK  172  A    between atoms: _419  and  _421
REMARK  173  A    between atoms: _421  and  _422
REMARK  174  A    between atoms: _421  and  _424
REMARK  175  A    between atoms: _424  and  _425
REMARK  176  A    between atoms: _430  and  _432
REMARK  177  A    between atoms: _432  and  _433
REMARK  178  A    between atoms: _432  and  _435
REMARK  179  A    between atoms: _435  and  _436
REMARK  180  A    between atoms: _438  and  _440
REMARK  181  A    between atoms: _440  and  _441
REMARK  182  A    between atoms: _440  and  _443
REMARK  183  A    between atoms: _443  and  _444
REMARK  184  A    between atoms: _454  and  _456
REMARK  185  A    between atoms: _456  and  _457
REMARK  186  A    between atoms: _456  and  _459
REMARK  187  A    between atoms: _459  and  _460
REMARK  188  A    between atoms: _463  and  _465
REMARK  189  A    between atoms: _465  and  _466
REMARK  190  A    between atoms: _468  and  _470
REMARK  191  A    between atoms: _470  and  _471
REMARK  192  A    between atoms: _470  and  _473
REMARK  193  A    between atoms: _473  and  _474
REMARK  194  A    between atoms: _479  and  _481
REMARK  195  A    between atoms: _481  and  _482
REMARK  196  A    between atoms: _481  and  _484
REMARK  197  A    between atoms: _484  and  _485
REMARK  198  A    between atoms: _488  and  _490
REMARK  199  A    between atoms: _490  and  _491
REMARK  200  A    between atoms: _490  and  _493
REMARK  201  A    between atoms: _493  and  _494
REMARK  202  A    between atoms: _497  and  _499
REMARK  203  A    between atoms: _499  and  _500
REMARK  204  A    between atoms: _499  and  _502
REMARK  205  A    between atoms: _502  and  _503
REMARK  206  A    between atoms: _503  and  _504
REMARK  207  A    between atoms: _506  and  _508
REMARK  208  A    between atoms: _508  and  _509
REMARK  209  A    between atoms: _508  and  _511
REMARK  210  A    between atoms: _511  and  _512
REMARK  211  A    between atoms: _517  and  _518
REMARK  212  A    between atoms: _520  and  _522
REMARK  213  A    between atoms: _522  and  _523
REMARK  214  A    between atoms: _527  and  _528
REMARK  215  A    between atoms: _533  and  _535
REMARK  216  A    between atoms: _535  and  _536
REMARK  217  A    between atoms: _535  and  _538
REMARK  218  A    between atoms: _538  and  _539
REMARK  219  A    between atoms: _542  and  _544
REMARK  220  A    between atoms: _544  and  _545
REMARK  221  A    between atoms: _544  and  _547
REMARK  222  A    between atoms: _547  and  _548
REMARK  223  A    between atoms: _558  and  _560
REMARK  224  A    between atoms: _560  and  _561
REMARK  225  A    between atoms: _560  and  _563
REMARK  226  A    between atoms: _563  and  _564
REMARK  227  A    between atoms: _567  and  _569
REMARK  228  A    between atoms: _569  and  _570
REMARK  229  A    between atoms: _569  and  _572
REMARK  230  A    between atoms: _574  and  _576
REMARK  231  A    between atoms: _576  and  _577
REMARK  232  A    between atoms: _576  and  _579
REMARK  233  A    between atoms: _579  and  _580
REMARK  234  A    between atoms: _580  and  _581
REMARK  235  A    between atoms: _586  and  _588
REMARK  236  A    between atoms: _588  and  _589
REMARK  237  A    between atoms: _588  and  _591
REMARK  238  A    between atoms: _591  and  _592
REMARK  239  A    between atoms: _595  and  _597
REMARK  240  A    between atoms: _597  and  _598
REMARK  241  A    between atoms: _597  and  _600
REMARK  242  A    between atoms: _600  and  _601
REMARK  243  A    between atoms: _606  and  _607
REMARK  244  A    between atoms: _609  and  _611
REMARK  245  A    between atoms: _611  and  _612
REMARK  246  A    between atoms: _614  and  _616
REMARK  247  A    between atoms: _616  and  _617
REMARK  248  A    between atoms: _620  and  _622
REMARK  249  A    between atoms: _622  and  _623
REMARK  250  A    between atoms: _622  and  _625
REMARK  251  A    between atoms: _627  and  _629
REMARK  252  A    between atoms: _629  and  _630
REMARK  253  A    between atoms: _629  and  _632
REMARK  254  A    between atoms: _632  and  _633
REMARK  255  A    between atoms: _638  and  _639
REMARK  256  A    between atoms: _641  and  _643
REMARK  257  A    between atoms: _643  and  _644
REMARK  258  A    between atoms: _643  and  _646
REMARK  259  A    between atoms: _646  and  _647
REMARK  260  A    between atoms: _650  and  _652
REMARK  261  A    between atoms: _652  and  _653
REMARK  262  A    between atoms: _652  and  _655
REMARK  263  A    between atoms: _655  and  _656
REMARK  264  A    between atoms: _661  and  _663
REMARK  265  A    between atoms: _663  and  _664
REMARK  266  A    between atoms: _663  and  _666
REMARK  267  A    between atoms: _666  and  _667
REMARK  268  A    between atoms: _673  and  _675
REMARK  269  A    between atoms: _675  and  _676
REMARK  270  A    between atoms: _679  and  _681
REMARK  271  A    between atoms: _681  and  _682
REMARK  272  A    between atoms: _684  and  _686
REMARK  273  A    between atoms: _686  and  _687
REMARK  274  A    between atoms: _686  and  _689
REMARK  275  A    between atoms: _689  and  _690
REMARK  276  A    between atoms: _695  and  _696
REMARK  277  A    between atoms: _698  and  _700
REMARK  278  A    between atoms: _700  and  _701
REMARK  279  A    between atoms: _700  and  _703
REMARK  280  A    between atoms: _703  and  _704
REMARK  281  A    between atoms: _706  and  _708
REMARK  282  A    between atoms: _708  and  _709
REMARK  283  A    between atoms: _711  and  _713
REMARK  284  A    between atoms: _713  and  _714
REMARK                            x       y       z     vdW  Elec       q    Type
REMARK                         _______ _______ _______ _____ _____    ______ ____
ROOT
ATOM      1  C   LEU A   1      19.081  13.477  26.706  0.00  0.00    +0.238 C 
ATOM      2  O   LEU A   1      20.165  13.972  27.057  0.00  0.00    -0.274 OA
ATOM      3  N   HIS A   2      18.773  13.234  25.439  0.00  0.00    -0.298 N 
ATOM      4  H   HIS A   2      17.790  12.994  25.197  0.00  0.00    +0.150 HD
ENDROOT
BRANCH   1   5
ATOM      5  CA  LEU A   1      18.022  13.099  27.739  0.00  0.00    +0.145 C 
BRANCH   5   6
ATOM      6  N   LEU A   1      16.674  13.065  27.207  0.00  0.00    -0.238 NA
ATOM      7  H   LEU A   1      16.269  12.145  26.940  0.00  0.00    +0.142 HD
ENDBRANCH   5   6
BRANCH   5   8
ATOM      8  CB  LEU A   1      18.352  11.725  28.328  0.00  0.00    +0.026 C 
BRANCH   8   9
ATOM      9  CG  LEU A   1      18.040  11.548  29.832  0.00  0.00    +0.002 C 
ATOM     10  CD2 LEU A   1      18.473  10.186  30.312  0.00  0.00    +0.000 C 
ATOM     11  CD1 LEU A   1      16.565  11.800  30.170  0.00  0.00    +0.000 C 
ENDBRANCH   8   9
ENDBRANCH   5   8
ENDBRANCH   1   5
BRANCH   3  12
ATOM     12  CA  HIS A   2      19.766  13.292  24.378  0.00  0.00    +0.143 C 
BRANCH  12  13
ATOM     13  C   HIS A   2      19.329  14.060  23.141  0.00  0.00    +0.227 C 
ATOM     14  O   HIS A   2      20.149  14.319  22.279  0.00  0.00    -0.286 OA
ENDBRANCH  12  13
BRANCH  12  15
ATOM     15  CB  HIS A   2      20.148  11.866  23.933  0.00  0.00    +0.075 C 
BRANCH  15  16
ATOM     16  CG  HIS A   2      20.840  11.069  24.989  0.00  0.00    +0.082 A 
ATOM     17  CD2 HIS A   2      20.405  10.052  25.779  0.00  0.00    +0.115 A 
ATOM     18  NE2 HIS A   2      21.465   9.670  26.566  0.00  0.00    -0.221 NA
ATOM     19  CE1 HIS A   2      22.510  10.424  26.271  0.00  0.00    +0.199 A 
ATOM     20  ND1 HIS A   2      22.160  11.279  25.326  0.00  0.00    -0.227 NA
ENDBRANCH  15  16
ENDBRANCH  12  15
ENDBRANCH   3  12
TORSDOF 8
REMARK  Name = ../refined-set-2016/3gnw/3gnw_pocket.pdb
REMARK  284 active torsions:
REMARK  status: ('A' for Active; 'I' for Inactive)
REMARK    1  A    between atoms: _1  and  _3
REMARK    2  A    between atoms: _3  and  _4
REMARK    3  A    between atoms: _3  and  _6
REMARK    4  A    between atoms: _6  and  _7
REMARK    5  A    between atoms: _7  and  _8
REMARK    6  A    between atoms: _8  and  _9
REMARK    7  A    between atoms: _9  and  _10
REMARK    8  A    between atoms: _14  and  _16
REMARK    9  A    between atoms: _16  and  _17
REMARK   10  A    between atoms: _16  and  _19
REMARK   11  A    between atoms: _19  and  _20
REMARK   12  A    between atoms: _20  and  _21
REMARK   13  A    between atoms: _24  and  _26
REMARK   14  A    between atoms: _26  and  _27
REMARK   15  A    between atoms: _26  and  _29
REMARK   16  A    between atoms: _29  and  _30
REMARK   17  A    between atoms: _36  and  _38
REMARK   18  A    between atoms: _38  and  _39
REMARK   19  A    between atoms: _38  and  _41
REMARK   20  A    between atoms: _41  and  _42
REMARK   21  A    between atoms: _42  and  _43
REMARK   22  A    between atoms: _43  and  _44
REMARK   23  A    between atoms: _53  and  _55
REMARK   24  A    between atoms: _55  and  _56
REMARK   25  A    between atoms: _55  and  _58
REMARK   26  A    between atoms: _58  and  _59
REMARK   27  A    between atoms: _62  and  _64
REMARK   28  A    between atoms: _64  and  _65
REMARK   29  A    between atoms: _67  and  _69
REMARK   30  A    between atoms: _69  and  _70
REMARK   31  A    between atoms: _69  and  _72
REMARK   32  A    between atoms: _72  and  _73
REMARK   33  A    between atoms: _79  and  _81
REMARK   34  A    between atoms: _81  and  _82
REMARK   35  A    between atoms: _81  and  _84
REMARK   36  A    between atoms: _84  and  _85
REMARK   37  A    between atoms: _90  and  _91
REMARK   38  A    between atoms: _93  and  _95
REMARK   39  A    between atoms: _95  and  _96
REMARK   40  A    between atoms: _95  and  _98
REMARK   41  A    between atoms: _98  and  _99
REMARK   42  A    between atoms: _102  and  _103
REMARK   43  A    between atoms: _108  and  _110
REMARK   44  A    between atoms: _110  and  _111
REMARK   45  A    between atoms: _110  and  _113
REMARK   46  A    between atoms: _113  and  _114
REMARK   47  A    between atoms: _114  and  _115
REMARK   48  A    between atoms: _115  and  _116
REMARK   49  A    between atoms: _116  and  _117
REMARK   50  A    between atoms: _121  and  _123
REMARK   51  A    between atoms: _123  and  _124
REMARK   52  A    between atoms: _123  and  _126
REMARK   53  A    between atoms: _126  and  _127
REMARK   54  A    between atoms: _127  and  _128
REMARK   55  A    between atoms: _133  and  _135
REMARK   56  A    between atoms: _135  and  _136
REMARK   57  A    between atoms: _135  and  _138
REMARK   58  A    between atoms: _138  and  _139
REMARK   59  A    between atoms: _139  and  _140
REMARK   60  A    between atoms: _140  and  _141
REMARK   61  A    between atoms: _150  and  _152
REMARK   62  A    between atoms: _152  and  _153
REMARK   63  A    between atoms: _152  and  _155
REMARK   64  A    between atoms: _158  and  _160
REMARK   65  A    between atoms: _160  and  _161
REMARK   66  A    between atoms: _160  and  _163
REMARK   67  A    between atoms: _163  and  _164
REMARK   68  A    between atoms: _167  and  _169
REMARK   69  A    between atoms: _169  and  _170
REMARK   70  A    between atoms: _169  and  _172
REMARK   71  A    between atoms: _172  and  _173
REMARK   72  A    between atoms: _179  and  _181
REMARK   73  A    between atoms: _181  and  _182
REMARK   74  A    between atoms: _181  and  _184
REMARK   75  A    between atoms: _184  and  _185
REMARK   76  A    between atoms: _188  and  _190
REMARK   77  A    between atoms: _190  and  _191
REMARK   78  A    between atoms: _190  and  _193
REMARK   79  A    between atoms: _193  and  _194
REMARK   80  A    between atoms: _196  and  _198
REMARK   81  A    between atoms: _198  and  _199
REMARK   82  A    between atoms: _198  and  _201
REMARK   83  A    between atoms: _201  and  _202
REMARK   84  A    between atoms: _205  and  _207
REMARK   85  A    between atoms: _207  and  _208
REMARK   86  A    between atoms: _207  and  _210
REMARK   87  A    between atoms: _210  and  _211
REMARK   88  A    between atoms: _213  and  _215
REMARK   89  A    between atoms: _215  and  _216
REMARK   90  A    between atoms: _215  and  _218
REMARK   91  A    between atoms: _218  and  _219
REMARK   92  A    between atoms: _224  and  _226
REMARK   93  A    between atoms: _226  and  _227
REMARK   94  A    between atoms: _226  and  _229
REMARK   95  A    between atoms: _229  and  _230
REMARK   96  A    between atoms: _233  and  _235
REMARK   97  A    between atoms: _235  and  _236
REMARK   98  A    between atoms: _235  and  _238
REMARK   99  A    between atoms: _238  and  _239
REMARK  100  A    between atoms: _244  and  _246
REMARK  101  A    between atoms: _246  and  _247
REMARK  102  A    between atoms: _249  and  _251
REMARK  103  A    between atoms: _251  and  _252
REMARK  104  A    between atoms: _251  and  _254
REMARK  105  A    between atoms: _254  and  _255
REMARK  106  A    between atoms: _258  and  _260
REMARK  107  A    between atoms: _260  and  _261
REMARK  108  A    between atoms: _260  and  _263
REMARK  109  A    between atoms: _263  and  _264
REMARK  110  A    between atoms: _267  and  _269
REMARK  111  A    between atoms: _269  and  _270
REMARK  112  A    between atoms: _269  and  _272
REMARK  113  A    between atoms: _272  and  _273
REMARK  114  A    between atoms: _276  and  _278
REMARK  115  A    between atoms: _278  and  _279
REMARK  116  A    between atoms: _278  and  _281
REMARK  117  A    between atoms: _281  and  _282
REMARK  118  A    between atoms: _284  and  _286
REMARK  119  A    between atoms: _286  and  _287
REMARK  120  A    between atoms: _286  and  _289
REMARK  121  A    between atoms: _291  and  _293
REMARK  122  A    between atoms: _293  and  _294
REMARK  123  A    between atoms: _293  and  _296
REMARK  124  A    between atoms: _296  and  _297
REMARK  125  A    between atoms: _299  and  _301
REMARK  126  A    between atoms: _301  and  _302
REMARK  127  A    between atoms: _301  and  _304
REMARK  128  A    between atoms: _304  and  _305
REMARK  129  A    between atoms: _307  and  _309
REMARK  130  A    between atoms: _309  and  _310
REMARK  131  A    between atoms: _309  and  _312
REMARK  132  A    between atoms: _312  and  _313
REMARK  133  A    between atoms: _318  and  _320
REMARK  134  A    between atoms: _320  and  _321
REMARK  135  A    between atoms: _320  and  _323
REMARK  136  A    between atoms: _323  and  _324
REMARK  137  A    between atoms: _329  and  _330
REMARK  138  A    between atoms: _332  and  _334
REMARK  139  A    between atoms: _334  and  _335
REMARK  140  A    between atoms: _334  and  _337
REMARK  141  A    between atoms: _337  and  _338
REMARK  142  A    between atoms: _341  and  _343
REMARK  143  A    between atoms: _343  and  _344
REMARK  144  A    between atoms: _343  and  _346
REMARK  145  A    between atoms: _346  and  _347
REMARK  146  A    between atoms: _350  and  _352
REMARK  147  A    between atoms: _352  and  _353
REMARK  148  A    between atoms: _352  and  _355
REMARK  149  A    between atoms: _355  and  _356
REMARK  150  A    between atoms: _356  and  _357
REMARK  151  A    between atoms: _357  and  _358
REMARK  152  A    between atoms: _367  and  _369
REMARK  153  A    between atoms: _369  and  _370
REMARK  154  A    between atoms: _369  and  _372
REMARK  155  A    between atoms: _372  and  _373
REMARK  156  A    between atoms: _377  and  _378
REMARK  157  A    between atoms: _383  and  _385
REMARK  158  A    between atoms: _385  and  _386
REMARK  159  A    between atoms: _385  and  _388
REMARK  160  A    between atoms: _388  and  _389
REMARK  161  A    between atoms: _389  and  _390
REMARK  162  A    between atoms: _390  and  _391
REMARK  163  A    between atoms: _400  and  _402
REMARK  164  A    between atoms: _402  and  _403
REMARK  165  A    between atoms: _402  and  _405
REMARK  166  A    between atoms: _405  and  _406
REMARK  167  A    between atoms: _406  and  _407
REMARK  168  A    between atoms: _410  and  _412
REMARK  169  A    between atoms: _412  and  _413
REMARK  170  A    between atoms: _412  and  _415
REMARK  171  A    between atoms: _415  and  _416
REMARK  172  A    between atoms: _419  and  _421
REMARK  173  A    between atoms: _421  and  _422
REMARK  174  A    between atoms: _421  and  _424
REMARK  175  A    between atoms: _424  and  _425
REMARK  176  A    between atoms: _430  and  _432
REMARK  177  A    between atoms: _432  and  _433
REMARK  178  A    between atoms: _432  and  _435
REMARK  179  A    between atoms: _435  and  _436
REMARK  180  A    between atoms: _438  and  _440
REMARK  181  A    between atoms: _440  and  _441
REMARK  182  A    between atoms: _440  and  _443
REMARK  183  A    between atoms: _443  and  _444
REMARK  184  A    between atoms: _454  and  _456
REMARK  185  A    between atoms: _456  and  _457
REMARK  186  A    between atoms: _456  and  _459
REMARK  187  A    between atoms: _459  and  _460
REMARK  188  A    between atoms: _463  and  _465
REMARK  189  A    between atoms: _465  and  _466
REMARK  190  A    between atoms: _468  and  _470
REMARK  191  A    between atoms: _470  and  _471
REMARK  192  A    between atoms: _470  and  _473
REMARK  193  A    between atoms: _473  and  _474
REMARK  194  A    between atoms: _479  and  _481
REMARK  195  A    between atoms: _481  and  _482
REMARK  196  A    between atoms: _481  and  _484
REMARK  197  A    between atoms: _484  and  _485
REMARK  198  A    between atoms: _488  and  _490
REMARK  199  A    between atoms: _490  and  _491
REMARK  200  A    between atoms: _490  and  _493
REMARK  201  A    between atoms: _493  and  _494
REMARK  202  A    between atoms: _497  and  _499
REMARK  203  A    between atoms: _499  and  _500
REMARK  204  A    between atoms: _499  and  _502
REMARK  205  A    between atoms: _502  and  _503
REMARK  206  A    between atoms: _503  and  _504
REMARK  207  A    between atoms: _506  and  _508
REMARK  208  A    between atoms: _508  and  _509
REMARK  209  A    between atoms: _508  and  _511
REMARK  210  A    between atoms: _511  and  _512
REMARK  211  A    between atoms: _517  and  _518
REMARK  212  A    between atoms: _520  and  _522
REMARK  213  A    between atoms: _522  and  _523
REMARK  214  A    between atoms: _527  and  _528
REMARK  215  A    between atoms: _533  and  _535
REMARK  216  A    between atoms: _535  and  _536
REMARK  217  A    between atoms: _535  and  _538
REMARK  218  A    between atoms: _538  and  _539
REMARK  219  A    between atoms: _542  and  _544
REMARK  220  A    between atoms: _544  and  _545
REMARK  221  A    between atoms: _544  and  _547
REMARK  222  A    between atoms: _547  and  _548
REMARK  223  A    between atoms: _558  and  _560
REMARK  224  A    between atoms: _560  and  _561
REMARK  225  A    between atoms: _560  and  _563
REMARK  226  A    between atoms: _563  and  _564
REMARK  227  A    between atoms: _567  and  _569
REMARK  228  A    between atoms: _569  and  _570
REMARK  229  A    between atoms: _569  and  _572
REMARK  230  A    between atoms: _574  and  _576
REMARK  231  A    between atoms: _576  and  _577
REMARK  232  A    between atoms: _576  and  _579
REMARK  233  A    between atoms: _579  and  _580
REMARK  234  A    between atoms: _580  and  _581
REMARK  235  A    between atoms: _586  and  _588
REMARK  236  A    between atoms: _588  and  _589
REMARK  237  A    between atoms: _588  and  _591
REMARK  238  A    between atoms: _591  and  _592
REMARK  239  A    between atoms: _595  and  _597
REMARK  240  A    between atoms: _597  and  _598
REMARK  241  A    between atoms: _597  and  _600
REMARK  242  A    between atoms: _600  and  _601
REMARK  243  A    between atoms: _606  and  _607
REMARK  244  A    between atoms: _609  and  _611
REMARK  245  A    between atoms: _611  and  _612
REMARK  246  A    between atoms: _614  and  _616
REMARK  247  A    between atoms: _616  and  _617
REMARK  248  A    between atoms: _620  and  _622
REMARK  249  A    between atoms: _622  and  _623
REMARK  250  A    between atoms: _622  and  _625
REMARK  251  A    between atoms: _627  and  _629
REMARK  252  A    between atoms: _629  and  _630
REMARK  253  A    between atoms: _629  and  _632
REMARK  254  A    between atoms: _632  and  _633
REMARK  255  A    between atoms: _638  and  _639
REMARK  256  A    between atoms: _641  and  _643
REMARK  257  A    between atoms: _643  and  _644
REMARK  258  A    between atoms: _643  and  _646
REMARK  259  A    between atoms: _646  and  _647
REMARK  260  A    between atoms: _650  and  _652
REMARK  261  A    between atoms: _652  and  _653
REMARK  262  A    between atoms: _652  and  _655
REMARK  263  A    between atoms: _655  and  _656
REMARK  264  A    between atoms: _661  and  _663
REMARK  265  A    between atoms: _663  and  _664
REMARK  266  A    between atoms: _663  and  _666
REMARK  267  A    between atoms: _666  and  _667
REMARK  268  A    between atoms: _673  and  _675
REMARK  269  A    between atoms: _675  and  _676
REMARK  270  A    between atoms: _679  and  _681
REMARK  271  A    between atoms: _681  and  _682
REMARK  272  A    between atoms: _684  and  _686
REMARK  273  A    between atoms: _686  and  _687
REMARK  274  A    between atoms: _686  and  _689
REMARK  275  A    between atoms: _689  and  _690
REMARK  276  A    between atoms: _695  and  _696
REMARK  277  A    between atoms: _698  and  _700
REMARK  278  A    between atoms: _700  and  _701
REMARK  279  A    between atoms: _700  and  _703
REMARK  280  A    between atoms: _703  and  _704
REMARK  281  A    between atoms: _706  and  _708
REMARK  282  A    between atoms: _708  and  _709
REMARK  283  A    between atoms: _711  and  _713
REMARK  284  A    between atoms: _713  and  _714
REMARK                            x       y       z     vdW  Elec       q    Type
REMARK                         _______ _______ _______ _____ _____    ______ ____
ROOT
ATOM      1  CB  PHE A   1      19.823  15.481  35.585  0.00  0.00    +0.051 C 
ENDROOT
BRANCH   1   2
ATOM      2  CG  PHE A   1      19.745  14.282  34.689  0.00  0.00    -0.020 A 
ATOM      3  CD2 PHE A   1      20.732  13.331  34.721  0.00  0.00    -0.004 A 
ATOM      4  CE2 PHE A   1      20.651  12.184  33.922  0.00  0.00    -0.000 A 
ATOM      5  CZ  PHE A   1      19.549  11.989  33.099  0.00  0.00    -0.000 A 
ATOM      6  CE1 PHE A   1      18.550  12.928  33.067  0.00  0.00    -0.000 A 
ATOM      7  CD1 PHE A   1      18.648  14.073  33.858  0.00  0.00    -0.004 A 
ENDBRANCH   1   2
BRANCH   1   8
ATOM      8  CA  PHE A   1      19.642  15.127  37.065  0.00  0.00    +0.137 C 
BRANCH   8   9
ATOM      9  N   PHE A   1      18.377  14.421  37.255  0.00  0.00    -0.239 NA
ATOM     10  H   PHE A   1      17.499  14.975  37.203  0.00  0.00    +0.142 HD
ENDBRANCH   8   9
BRANCH   8  11
ATOM     11  C   PHE A   1      19.598  16.340  37.973  0.00  0.00    +0.224 C 
ATOM     12  O   PHE A   1      19.549  17.506  37.547  0.00  0.00    -0.287 OA
ENDBRANCH   8  11
ENDBRANCH   1   8
TORSDOF 4
REMARK  Name = ../refined-set-2016/3gnw/3gnw_pocket.pdb
REMARK  284 active torsions:
REMARK  status: ('A' for Active; 'I' for Inactive)
REMARK    1  A    between atoms: _1  and  _3
REMARK    2  A    between atoms: _3  and  _4
REMARK    3  A    between atoms: _3  and  _6
REMARK    4  A    between atoms: _6  and  _7
REMARK    5  A    between atoms: _7  and  _8
REMARK    6  A    between atoms: _8  and  _9
REMARK    7  A    between atoms: _9  and  _10
REMARK    8  A    between atoms: _14  and  _16
REMARK    9  A    between atoms: _16  and  _17
REMARK   10  A    between atoms: _16  and  _19
REMARK   11  A    between atoms: _19  and  _20
REMARK   12  A    between atoms: _20  and  _21
REMARK   13  A    between atoms: _24  and  _26
REMARK   14  A    between atoms: _26  and  _27
REMARK   15  A    between atoms: _26  and  _29
REMARK   16  A    between atoms: _29  and  _30
REMARK   17  A    between atoms: _36  and  _38
REMARK   18  A    between atoms: _38  and  _39
REMARK   19  A    between atoms: _38  and  _41
REMARK   20  A    between atoms: _41  and  _42
REMARK   21  A    between atoms: _42  and  _43
REMARK   22  A    between atoms: _43  and  _44
REMARK   23  A    between atoms: _53  and  _55
REMARK   24  A    between atoms: _55  and  _56
REMARK   25  A    between atoms: _55  and  _58
REMARK   26  A    between atoms: _58  and  _59
REMARK   27  A    between atoms: _62  and  _64
REMARK   28  A    between atoms: _64  and  _65
REMARK   29  A    between atoms: _67  and  _69
REMARK   30  A    between atoms: _69  and  _70
REMARK   31  A    between atoms: _69  and  _72
REMARK   32  A    between atoms: _72  and  _73
REMARK   33  A    between atoms: _79  and  _81
REMARK   34  A    between atoms: _81  and  _82
REMARK   35  A    between atoms: _81  and  _84
REMARK   36  A    between atoms: _84  and  _85
REMARK   37  A    between atoms: _90  and  _91
REMARK   38  A    between atoms: _93  and  _95
REMARK   39  A    between atoms: _95  and  _96
REMARK   40  A    between atoms: _95  and  _98
REMARK   41  A    between atoms: _98  and  _99
REMARK   42  A    between atoms: _102  and  _103
REMARK   43  A    between atoms: _108  and  _110
REMARK   44  A    between atoms: _110  and  _111
REMARK   45  A    between atoms: _110  and  _113
REMARK   46  A    between atoms: _113  and  _114
REMARK   47  A    between atoms: _114  and  _115
REMARK   48  A    between atoms: _115  and  _116
REMARK   49  A    between atoms: _116  and  _117
REMARK   50  A    between atoms: _121  and  _123
REMARK   51  A    between atoms: _123  and  _124
REMARK   52  A    between atoms: _123  and  _126
REMARK   53  A    between atoms: _126  and  _127
REMARK   54  A    between atoms: _127  and  _128
REMARK   55  A    between atoms: _133  and  _135
REMARK   56  A    between atoms: _135  and  _136
REMARK   57  A    between atoms: _135  and  _138
REMARK   58  A    between atoms: _138  and  _139
REMARK   59  A    between atoms: _139  and  _140
REMARK   60  A    between atoms: _140  and  _141
REMARK   61  A    between atoms: _150  and  _152
REMARK   62  A    between atoms: _152  and  _153
REMARK   63  A    between atoms: _152  and  _155
REMARK   64  A    between atoms: _158  and  _160
REMARK   65  A    between atoms: _160  and  _161
REMARK   66  A    between atoms: _160  and  _163
REMARK   67  A    between atoms: _163  and  _164
REMARK   68  A    between atoms: _167  and  _169
REMARK   69  A    between atoms: _169  and  _170
REMARK   70  A    between atoms: _169  and  _172
REMARK   71  A    between atoms: _172  and  _173
REMARK   72  A    between atoms: _179  and  _181
REMARK   73  A    between atoms: _181  and  _182
REMARK   74  A    between atoms: _181  and  _184
REMARK   75  A    between atoms: _184  and  _185
REMARK   76  A    between atoms: _188  and  _190
REMARK   77  A    between atoms: _190  and  _191
REMARK   78  A    between atoms: _190  and  _193
REMARK   79  A    between atoms: _193  and  _194
REMARK   80  A    between atoms: _196  and  _198
REMARK   81  A    between atoms: _198  and  _199
REMARK   82  A    between atoms: _198  and  _201
REMARK   83  A    between atoms: _201  and  _202
REMARK   84  A    between atoms: _205  and  _207
REMARK   85  A    between atoms: _207  and  _208
REMARK   86  A    between atoms: _207  and  _210
REMARK   87  A    between atoms: _210  and  _211
REMARK   88  A    between atoms: _213  and  _215
REMARK   89  A    between atoms: _215  and  _216
REMARK   90  A    between atoms: _215  and  _218
REMARK   91  A    between atoms: _218  and  _219
REMARK   92  A    between atoms: _224  and  _226
REMARK   93  A    between atoms: _226  and  _227
REMARK   94  A    between atoms: _226  and  _229
REMARK   95  A    between atoms: _229  and  _230
REMARK   96  A    between atoms: _233  and  _235
REMARK   97  A    between atoms: _235  and  _236
REMARK   98  A    between atoms: _235  and  _238
REMARK   99  A    between atoms: _238  and  _239
REMARK  100  A    between atoms: _244  and  _246
REMARK  101  A    between atoms: _246  and  _247
REMARK  102  A    between atoms: _249  and  _251
REMARK  103  A    between atoms: _251  and  _252
REMARK  104  A    between atoms: _251  and  _254
REMARK  105  A    between atoms: _254  and  _255
REMARK  106  A    between atoms: _258  and  _260
REMARK  107  A    between atoms: _260  and  _261
REMARK  108  A    between atoms: _260  and  _263
REMARK  109  A    between atoms: _263  and  _264
REMARK  110  A    between atoms: _267  and  _269
REMARK  111  A    between atoms: _269  and  _270
REMARK  112  A    between atoms: _269  and  _272
REMARK  113  A    between atoms: _272  and  _273
REMARK  114  A    between atoms: _276  and  _278
REMARK  115  A    between atoms: _278  and  _279
REMARK  116  A    between atoms: _278  and  _281
REMARK  117  A    between atoms: _281  and  _282
REMARK  118  A    between atoms: _284  and  _286
REMARK  119  A    between atoms: _286  and  _287
REMARK  120  A    between atoms: _286  and  _289
REMARK  121  A    between atoms: _291  and  _293
REMARK  122  A    between atoms: _293  and  _294
REMARK  123  A    between atoms: _293  and  _296
REMARK  124  A    between atoms: _296  and  _297
REMARK  125  A    between atoms: _299  and  _301
REMARK  126  A    between atoms: _301  and  _302
REMARK  127  A    between atoms: _301  and  _304
REMARK  128  A    between atoms: _304  and  _305
REMARK  129  A    between atoms: _307  and  _309
REMARK  130  A    between atoms: _309  and  _310
REMARK  131  A    between atoms: _309  and  _312
REMARK  132  A    between atoms: _312  and  _313
REMARK  133  A    between atoms: _318  and  _320
REMARK  134  A    between atoms: _320  and  _321
REMARK  135  A    between atoms: _320  and  _323
REMARK  136  A    between atoms: _323  and  _324
REMARK  137  A    between atoms: _329  and  _330
REMARK  138  A    between atoms: _332  and  _334
REMARK  139  A    between atoms: _334  and  _335
REMARK  140  A    between atoms: _334  and  _337
REMARK  141  A    between atoms: _337  and  _338
REMARK  142  A    between atoms: _341  and  _343
REMARK  143  A    between atoms: _343  and  _344
REMARK  144  A    between atoms: _343  and  _346
REMARK  145  A    between atoms: _346  and  _347
REMARK  146  A    between atoms: _350  and  _352
REMARK  147  A    between atoms: _352  and  _353
REMARK  148  A    between atoms: _352  and  _355
REMARK  149  A    between atoms: _355  and  _356
REMARK  150  A    between atoms: _356  and  _357
REMARK  151  A    between atoms: _357  and  _358
REMARK  152  A    between atoms: _367  and  _369
REMARK  153  A    between atoms: _369  and  _370
REMARK  154  A    between atoms: _369  and  _372
REMARK  155  A    between atoms: _372  and  _373
REMARK  156  A    between atoms: _377  and  _378
REMARK  157  A    between atoms: _383  and  _385
REMARK  158  A    between atoms: _385  and  _386
REMARK  159  A    between atoms: _385  and  _388
REMARK  160  A    between atoms: _388  and  _389
REMARK  161  A    between atoms: _389  and  _390
REMARK  162  A    between atoms: _390  and  _391
REMARK  163  A    between atoms: _400  and  _402
REMARK  164  A    between atoms: _402  and  _403
REMARK  165  A    between atoms: _402  and  _405
REMARK  166  A    between atoms: _405  and  _406
REMARK  167  A    between atoms: _406  and  _407
REMARK  168  A    between atoms: _410  and  _412
REMARK  169  A    between atoms: _412  and  _413
REMARK  170  A    between atoms: _412  and  _415
REMARK  171  A    between atoms: _415  and  _416
REMARK  172  A    between atoms: _419  and  _421
REMARK  173  A    between atoms: _421  and  _422
REMARK  174  A    between atoms: _421  and  _424
REMARK  175  A    between atoms: _424  and  _425
REMARK  176  A    between atoms: _430  and  _432
REMARK  177  A    between atoms: _432  and  _433
REMARK  178  A    between atoms: _432  and  _435
REMARK  179  A    between atoms: _435  and  _436
REMARK  180  A    between atoms: _438  and  _440
REMARK  181  A    between atoms: _440  and  _441
REMARK  182  A    between atoms: _440  and  _443
REMARK  183  A    between atoms: _443  and  _444
REMARK  184  A    between atoms: _454  and  _456
REMARK  185  A    between atoms: _456  and  _457
REMARK  186  A    between atoms: _456  and  _459
REMARK  187  A    between atoms: _459  and  _460
REMARK  188  A    between atoms: _463  and  _465
REMARK  189  A    between atoms: _465  and  _466
REMARK  190  A    between atoms: _468  and  _470
REMARK  191  A    between atoms: _470  and  _471
REMARK  192  A    between atoms: _470  and  _473
REMARK  193  A    between atoms: _473  and  _474
REMARK  194  A    between atoms: _479  and  _481
REMARK  195  A    between atoms: _481  and  _482
REMARK  196  A    between atoms: _481  and  _484
REMARK  197  A    between atoms: _484  and  _485
REMARK  198  A    between atoms: _488  and  _490
REMARK  199  A    between atoms: _490  and  _491
REMARK  200  A    between atoms: _490  and  _493
REMARK  201  A    between atoms: _493  and  _494
REMARK  202  A    between atoms: _497  and  _499
REMARK  203  A    between atoms: _499  and  _500
REMARK  204  A    between atoms: _499  and  _502
REMARK  205  A    between atoms: _502  and  _503
REMARK  206  A    between atoms: _503  and  _504
REMARK  207  A    between atoms: _506  and  _508
REMARK  208  A    between atoms: _508  and  _509
REMARK  209  A    between atoms: _508  and  _511
REMARK  210  A    between atoms: _511  and  _512
REMARK  211  A    between atoms: _517  and  _518
REMARK  212  A    between atoms: _520  and  _522
REMARK  213  A    between atoms: _522  and  _523
REMARK  214  A    between atoms: _527  and  _528
REMARK  215  A    between atoms: _533  and  _535
REMARK  216  A    between atoms: _535  and  _536
REMARK  217  A    between atoms: _535  and  _538
REMARK  218  A    between atoms: _538  and  _539
REMARK  219  A    between atoms: _542  and  _544
REMARK  220  A    between atoms: _544  and  _545
REMARK  221  A    between atoms: _544  and  _547
REMARK  222  A    between atoms: _547  and  _548
REMARK  223  A    between atoms: _558  and  _560
REMARK  224  A    between atoms: _560  and  _561
REMARK  225  A    between atoms: _560  and  _563
REMARK  226  A    between atoms: _563  and  _564
REMARK  227  A    between atoms: _567  and  _569
REMARK  228  A    between atoms: _569  and  _570
REMARK  229  A    between atoms: _569  and  _572
REMARK  230  A    between atoms: _574  and  _576
REMARK  231  A    between atoms: _576  and  _577
REMARK  232  A    between atoms: _576  and  _579
REMARK  233  A    between atoms: _579  and  _580
REMARK  234  A    between atoms: _580  and  _581
REMARK  235  A    between atoms: _586  and  _588
REMARK  236  A    between atoms: _588  and  _589
REMARK  237  A    between atoms: _588  and  _591
REMARK  238  A    between atoms: _591  and  _592
REMARK  239  A    between atoms: _595  and  _597
REMARK  240  A    between atoms: _597  and  _598
REMARK  241  A    between atoms: _597  and  _600
REMARK  242  A    between atoms: _600  and  _601
REMARK  243  A    between atoms: _606  and  _607
REMARK  244  A    between atoms: _609  and  _611
REMARK  245  A    between atoms: _611  and  _612
REMARK  246  A    between atoms: _614  and  _616
REMARK  247  A    between atoms: _616  and  _617
REMARK  248  A    between atoms: _620  and  _622
REMARK  249  A    between atoms: _622  and  _623
REMARK  250  A    between atoms: _622  and  _625
REMARK  251  A    between atoms: _627  and  _629
REMARK  252  A    between atoms: _629  and  _630
REMARK  253  A    between atoms: _629  and  _632
REMARK  254  A    between atoms: _632  and  _633
REMARK  255  A    between atoms: _638  and  _639
REMARK  256  A    between atoms: _641  and  _643
REMARK  257  A    between atoms: _643  and  _644
REMARK  258  A    between atoms: _643  and  _646
REMARK  259  A    between atoms: _646  and  _647
REMARK  260  A    between atoms: _650  and  _652
REMARK  261  A    between atoms: _652  and  _653
REMARK  262  A    between atoms: _652  and  _655
REMARK  263  A    between atoms: _655  and  _656
REMARK  264  A    between atoms: _661  and  _663
REMARK  265  A    between atoms: _663  and  _664
REMARK  266  A    between atoms: _663  and  _666
REMARK  267  A    between atoms: _666  and  _667
REMARK  268  A    between atoms: _673  and  _675
REMARK  269  A    between atoms: _675  and  _676
REMARK  270  A    between atoms: _679  and  _681
REMARK  271  A    between atoms: _681  and  _682
REMARK  272  A    between atoms: _684  and  _686
REMARK  273  A    between atoms: _686  and  _687
REMARK  274  A    between atoms: _686  and  _689
REMARK  275  A    between atoms: _689  and  _690
REMARK  276  A    between atoms: _695  and  _696
REMARK  277  A    between atoms: _698  and  _700
REMARK  278  A    between atoms: _700  and  _701
REMARK  279  A    between atoms: _700  and  _703
REMARK  280  A    between atoms: _703  and  _704
REMARK  281  A    between atoms: _706  and  _708
REMARK  282  A    between atoms: _708  and  _709
REMARK  283  A    between atoms: _711  and  _713
REMARK  284  A    between atoms: _713  and  _714
REMARK                            x       y       z     vdW  Elec       q    Type
REMARK                         _______ _______ _______ _____ _____    ______ ____
ROOT
ATOM      1  CA  TYR A   3      23.431   9.617  45.189  0.00  0.00    +0.153 C 
ENDROOT
BRANCH   1   4
ATOM      2  C   GLY A   2      24.187  11.704  44.144  0.00  0.00    +0.243 C 
ATOM      3  O   GLY A   2      24.108  12.352  45.194  0.00  0.00    -0.273 OA
ATOM      4  N   TYR A   3      23.944  10.391  44.063  0.00  0.00    -0.297 N 
ATOM      5  H   TYR A   3      24.128   9.903  43.163  0.00  0.00    +0.150 HD
BRANCH   2   6
ATOM      6  CA  GLY A   2      24.561  12.394  42.839  0.00  0.00    +0.176 C 
BRANCH   6   8
ATOM      7  C   ALA A   1      22.772  13.956  42.274  0.00  0.00    +0.238 C 
ATOM      8  N   GLY A   2      23.984  13.732  42.759  0.00  0.00    -0.296 N 
ATOM      9  H   GLY A   2      24.546  14.540  43.095  0.00  0.00    +0.150 HD
ATOM     10  O   ALA A   1      22.096  13.109  41.697  0.00  0.00    -0.274 OA
BRANCH   7  11
ATOM     11  CA  ALA A   1      22.250  15.347  42.480  0.00  0.00    +0.145 C 
ATOM     12  CB  ALA A   1      21.843  15.537  43.935  0.00  0.00    +0.028 C 
BRANCH  11  13
ATOM     13  N   ALA A   1      21.123  15.622  41.599  0.00  0.00    -0.238 NA
ATOM     14  H   ALA A   1      20.501  14.838  41.316  0.00  0.00    +0.142 HD
ENDBRANCH  11  13
ENDBRANCH   7  11
ENDBRANCH   6   8
ENDBRANCH   2   6
ENDBRANCH   1   4
BRANCH   1  15
ATOM     15  C   TYR A   3      24.095   8.245  45.362  0.00  0.00    +0.241 C 
ATOM     16  O   TYR A   3      23.580   7.365  46.080  0.00  0.00    -0.273 OA
ATOM     17  N   SER A   4      25.223   8.063  44.698  0.00  0.00    -0.295 N 
ATOM     18  H   SER A   4      25.616   8.851  44.145  0.00  0.00    +0.150 HD
BRANCH  17  19
ATOM     19  CA  SER A   4      25.922   6.808  44.717  0.00  0.00    +0.178 C 
BRANCH  19  20
ATOM     20  C   SER A   4      26.311   6.477  46.144  0.00  0.00    +0.243 C 
ATOM     21  O   SER A   4      26.907   7.297  46.829  0.00  0.00    -0.273 OA
ATOM     22  N   GLY A   5      25.961   5.266  46.581  0.00  0.00    -0.295 N 
ATOM     23  H   GLY A   5      25.454   4.632  45.931  0.00  0.00    +0.150 HD
BRANCH  22  24
ATOM     24  CA  GLY A   5      26.254   4.795  47.915  0.00  0.00    +0.176 C 
BRANCH  24  25
ATOM     25  C   GLY A   5      25.251   5.275  48.950  0.00  0.00    +0.243 C 
ATOM     26  O   GLY A   5      25.310   4.866  50.105  0.00  0.00    -0.273 OA
ATOM     27  N   GLY A   6      24.303   6.104  48.517  0.00  0.00    -0.296 N 
ATOM     28  H   GLY A   6      24.240   6.285  47.495  0.00  0.00    +0.150 HD
BRANCH  27  29
ATOM     29  CA  GLY A   6      23.341   6.778  49.398  0.00  0.00    +0.163 C 
BRANCH  29  30
ATOM     30  C   GLY A   6      22.008   6.115  49.610  0.00  0.00    +0.229 C 
ATOM     31  O   GLY A   6      21.184   6.683  50.316  0.00  0.00    -0.286 OA
ENDBRANCH  29  30
ENDBRANCH  27  29
ENDBRANCH  24  25
ENDBRANCH  22  24
ENDBRANCH  19  20
BRANCH  19  32
ATOM     32  CB  SER A   4      27.160   6.896  43.835  0.00  0.00    +0.166 C 
BRANCH  32  33
ATOM     33  OG  SER A   4      27.828   5.655  43.832  0.00  0.00    -0.380 OA
ATOM     34  H   SER A   4      28.632   5.716  43.258  0.00  0.00    +0.211 HD
ENDBRANCH  32  33
ENDBRANCH  19  32
ENDBRANCH  17  19
ENDBRANCH   1  15
BRANCH   1  35
ATOM     35  CB  TYR A   3      21.927   9.405  45.018  0.00  0.00    +0.055 C 
BRANCH  35  36
ATOM     36  CG  TYR A   3      21.117  10.662  45.081  0.00  0.00    -0.020 A 
ATOM     37  CD2 TYR A   3      20.987  11.374  46.295  0.00  0.00    -0.001 A 
ATOM     38  CE2 TYR A   3      20.254  12.526  46.362  0.00  0.00    +0.036 A 
ATOM     39  CZ  TYR A   3      19.618  12.982  45.214  0.00  0.00    +0.134 A 
ATOM     40  CE1 TYR A   3      19.749  12.307  44.000  0.00  0.00    +0.036 A 
ATOM     41  CD1 TYR A   3      20.480  11.147  43.947  0.00  0.00    -0.001 A 
BRANCH  39  42
ATOM     42  OH  TYR A   3      18.888  14.134  45.247  0.00  0.00    -0.506 OA
ATOM     43  HH  TYR A   3      18.885  14.495  46.169  0.00  0.00    +0.292 HD
ENDBRANCH  39  42
ENDBRANCH  35  36
ENDBRANCH   1  35
TORSDOF 17
REMARK  Name = ../refined-set-2016/3gnw/3gnw_pocket.pdb
REMARK  284 active torsions:
REMARK  status: ('A' for Active; 'I' for Inactive)
REMARK    1  A    between atoms: _1  and  _3
REMARK    2  A    between atoms: _3  and  _4
REMARK    3  A    between atoms: _3  and  _6
REMARK    4  A    between atoms: _6  and  _7
REMARK    5  A    between atoms: _7  and  _8
REMARK    6  A    between atoms: _8  and  _9
REMARK    7  A    between atoms: _9  and  _10
REMARK    8  A    between atoms: _14  and  _16
REMARK    9  A    between atoms: _16  and  _17
REMARK   10  A    between atoms: _16  and  _19
REMARK   11  A    between atoms: _19  and  _20
REMARK   12  A    between atoms: _20  and  _21
REMARK   13  A    between atoms: _24  and  _26
REMARK   14  A    between atoms: _26  and  _27
REMARK   15  A    between atoms: _26  and  _29
REMARK   16  A    between atoms: _29  and  _30
REMARK   17  A    between atoms: _36  and  _38
REMARK   18  A    between atoms: _38  and  _39
REMARK   19  A    between atoms: _38  and  _41
REMARK   20  A    between atoms: _41  and  _42
REMARK   21  A    between atoms: _42  and  _43
REMARK   22  A    between atoms: _43  and  _44
REMARK   23  A    between atoms: _53  and  _55
REMARK   24  A    between atoms: _55  and  _56
REMARK   25  A    between atoms: _55  and  _58
REMARK   26  A    between atoms: _58  and  _59
REMARK   27  A    between atoms: _62  and  _64
REMARK   28  A    between atoms: _64  and  _65
REMARK   29  A    between atoms: _67  and  _69
REMARK   30  A    between atoms: _69  and  _70
REMARK   31  A    between atoms: _69  and  _72
REMARK   32  A    between atoms: _72  and  _73
REMARK   33  A    between atoms: _79  and  _81
REMARK   34  A    between atoms: _81  and  _82
REMARK   35  A    between atoms: _81  and  _84
REMARK   36  A    between atoms: _84  and  _85
REMARK   37  A    between atoms: _90  and  _91
REMARK   38  A    between atoms: _93  and  _95
REMARK   39  A    between atoms: _95  and  _96
REMARK   40  A    between atoms: _95  and  _98
REMARK   41  A    between atoms: _98  and  _99
REMARK   42  A    between atoms: _102  and  _103
REMARK   43  A    between atoms: _108  and  _110
REMARK   44  A    between atoms: _110  and  _111
REMARK   45  A    between atoms: _110  and  _113
REMARK   46  A    between atoms: _113  and  _114
REMARK   47  A    between atoms: _114  and  _115
REMARK   48  A    between atoms: _115  and  _116
REMARK   49  A    between atoms: _116  and  _117
REMARK   50  A    between atoms: _121  and  _123
REMARK   51  A    between atoms: _123  and  _124
REMARK   52  A    between atoms: _123  and  _126
REMARK   53  A    between atoms: _126  and  _127
REMARK   54  A    between atoms: _127  and  _128
REMARK   55  A    between atoms: _133  and  _135
REMARK   56  A    between atoms: _135  and  _136
REMARK   57  A    between atoms: _135  and  _138
REMARK   58  A    between atoms: _138  and  _139
REMARK   59  A    between atoms: _139  and  _140
REMARK   60  A    between atoms: _140  and  _141
REMARK   61  A    between atoms: _150  and  _152
REMARK   62  A    between atoms: _152  and  _153
REMARK   63  A    between atoms: _152  and  _155
REMARK   64  A    between atoms: _158  and  _160
REMARK   65  A    between atoms: _160  and  _161
REMARK   66  A    between atoms: _160  and  _163
REMARK   67  A    between atoms: _163  and  _164
REMARK   68  A    between atoms: _167  and  _169
REMARK   69  A    between atoms: _169  and  _170
REMARK   70  A    between atoms: _169  and  _172
REMARK   71  A    between atoms: _172  and  _173
REMARK   72  A    between atoms: _179  and  _181
REMARK   73  A    between atoms: _181  and  _182
REMARK   74  A    between atoms: _181  and  _184
REMARK   75  A    between atoms: _184  and  _185
REMARK   76  A    between atoms: _188  and  _190
REMARK   77  A    between atoms: _190  and  _191
REMARK   78  A    between atoms: _190  and  _193
REMARK   79  A    between atoms: _193  and  _194
REMARK   80  A    between atoms: _196  and  _198
REMARK   81  A    between atoms: _198  and  _199
REMARK   82  A    between atoms: _198  and  _201
REMARK   83  A    between atoms: _201  and  _202
REMARK   84  A    between atoms: _205  and  _207
REMARK   85  A    between atoms: _207  and  _208
REMARK   86  A    between atoms: _207  and  _210
REMARK   87  A    between atoms: _210  and  _211
REMARK   88  A    between atoms: _213  and  _215
REMARK   89  A    between atoms: _215  and  _216
REMARK   90  A    between atoms: _215  and  _218
REMARK   91  A    between atoms: _218  and  _219
REMARK   92  A    between atoms: _224  and  _226
REMARK   93  A    between atoms: _226  and  _227
REMARK   94  A    between atoms: _226  and  _229
REMARK   95  A    between atoms: _229  and  _230
REMARK   96  A    between atoms: _233  and  _235
REMARK   97  A    between atoms: _235  and  _236
REMARK   98  A    between atoms: _235  and  _238
REMARK   99  A    between atoms: _238  and  _239
REMARK  100  A    between atoms: _244  and  _246
REMARK  101  A    between atoms: _246  and  _247
REMARK  102  A    between atoms: _249  and  _251
REMARK  103  A    between atoms: _251  and  _252
REMARK  104  A    between atoms: _251  and  _254
REMARK  105  A    between atoms: _254  and  _255
REMARK  106  A    between atoms: _258  and  _260
REMARK  107  A    between atoms: _260  and  _261
REMARK  108  A    between atoms: _260  and  _263
REMARK  109  A    between atoms: _263  and  _264
REMARK  110  A    between atoms: _267  and  _269
REMARK  111  A    between atoms: _269  and  _270
REMARK  112  A    between atoms: _269  and  _272
REMARK  113  A    between atoms: _272  and  _273
REMARK  114  A    between atoms: _276  and  _278
REMARK  115  A    between atoms: _278  and  _279
REMARK  116  A    between atoms: _278  and  _281
REMARK  117  A    between atoms: _281  and  _282
REMARK  118  A    between atoms: _284  and  _286
REMARK  119  A    between atoms: _286  and  _287
REMARK  120  A    between atoms: _286  and  _289
REMARK  121  A    between atoms: _291  and  _293
REMARK  122  A    between atoms: _293  and  _294
REMARK  123  A    between atoms: _293  and  _296
REMARK  124  A    between atoms: _296  and  _297
REMARK  125  A    between atoms: _299  and  _301
REMARK  126  A    between atoms: _301  and  _302
REMARK  127  A    between atoms: _301  and  _304
REMARK  128  A    between atoms: _304  and  _305
REMARK  129  A    between atoms: _307  and  _309
REMARK  130  A    between atoms: _309  and  _310
REMARK  131  A    between atoms: _309  and  _312
REMARK  132  A    between atoms: _312  and  _313
REMARK  133  A    between atoms: _318  and  _320
REMARK  134  A    between atoms: _320  and  _321
REMARK  135  A    between atoms: _320  and  _323
REMARK  136  A    between atoms: _323  and  _324
REMARK  137  A    between atoms: _329  and  _330
REMARK  138  A    between atoms: _332  and  _334
REMARK  139  A    between atoms: _334  and  _335
REMARK  140  A    between atoms: _334  and  _337
REMARK  141  A    between atoms: _337  and  _338
REMARK  142  A    between atoms: _341  and  _343
REMARK  143  A    between atoms: _343  and  _344
REMARK  144  A    between atoms: _343  and  _346
REMARK  145  A    between atoms: _346  and  _347
REMARK  146  A    between atoms: _350  and  _352
REMARK  147  A    between atoms: _352  and  _353
REMARK  148  A    between atoms: _352  and  _355
REMARK  149  A    between atoms: _355  and  _356
REMARK  150  A    between atoms: _356  and  _357
REMARK  151  A    between atoms: _357  and  _358
REMARK  152  A    between atoms: _367  and  _369
REMARK  153  A    between atoms: _369  and  _370
REMARK  154  A    between atoms: _369  and  _372
REMARK  155  A    between atoms: _372  and  _373
REMARK  156  A    between atoms: _377  and  _378
REMARK  157  A    between atoms: _383  and  _385
REMARK  158  A    between atoms: _385  and  _386
REMARK  159  A    between atoms: _385  and  _388
REMARK  160  A    between atoms: _388  and  _389
REMARK  161  A    between atoms: _389  and  _390
REMARK  162  A    between atoms: _390  and  _391
REMARK  163  A    between atoms: _400  and  _402
REMARK  164  A    between atoms: _402  and  _403
REMARK  165  A    between atoms: _402  and  _405
REMARK  166  A    between atoms: _405  and  _406
REMARK  167  A    between atoms: _406  and  _407
REMARK  168  A    between atoms: _410  and  _412
REMARK  169  A    between atoms: _412  and  _413
REMARK  170  A    between atoms: _412  and  _415
REMARK  171  A    between atoms: _415  and  _416
REMARK  172  A    between atoms: _419  and  _421
REMARK  173  A    between atoms: _421  and  _422
REMARK  174  A    between atoms: _421  and  _424
REMARK  175  A    between atoms: _424  and  _425
REMARK  176  A    between atoms: _430  and  _432
REMARK  177  A    between atoms: _432  and  _433
REMARK  178  A    between atoms: _432  and  _435
REMARK  179  A    between atoms: _435  and  _436
REMARK  180  A    between atoms: _438  and  _440
REMARK  181  A    between atoms: _440  and  _441
REMARK  182  A    between atoms: _440  and  _443
REMARK  183  A    between atoms: _443  and  _444
REMARK  184  A    between atoms: _454  and  _456
REMARK  185  A    between atoms: _456  and  _457
REMARK  186  A    between atoms: _456  and  _459
REMARK  187  A    between atoms: _459  and  _460
REMARK  188  A    between atoms: _463  and  _465
REMARK  189  A    between atoms: _465  and  _466
REMARK  190  A    between atoms: _468  and  _470
REMARK  191  A    between atoms: _470  and  _471
REMARK  192  A    between atoms: _470  and  _473
REMARK  193  A    between atoms: _473  and  _474
REMARK  194  A    between atoms: _479  and  _481
REMARK  195  A    between atoms: _481  and  _482
REMARK  196  A    between atoms: _481  and  _484
REMARK  197  A    between atoms: _484  and  _485
REMARK  198  A    between atoms: _488  and  _490
REMARK  199  A    between atoms: _490  and  _491
REMARK  200  A    between atoms: _490  and  _493
REMARK  201  A    between atoms: _493  and  _494
REMARK  202  A    between atoms: _497  and  _499
REMARK  203  A    between atoms: _499  and  _500
REMARK  204  A    between atoms: _499  and  _502
REMARK  205  A    between atoms: _502  and  _503
REMARK  206  A    between atoms: _503  and  _504
REMARK  207  A    between atoms: _506  and  _508
REMARK  208  A    between atoms: _508  and  _509
REMARK  209  A    between atoms: _508  and  _511
REMARK  210  A    between atoms: _511  and  _512
REMARK  211  A    between atoms: _517  and  _518
REMARK  212  A    between atoms: _520  and  _522
REMARK  213  A    between atoms: _522  and  _523
REMARK  214  A    between atoms: _527  and  _528
REMARK  215  A    between atoms: _533  and  _535
REMARK  216  A    between atoms: _535  and  _536
REMARK  217  A    between atoms: _535  and  _538
REMARK  218  A    between atoms: _538  and  _539
REMARK  219  A    between atoms: _542  and  _544
REMARK  220  A    between atoms: _544  and  _545
REMARK  221  A    between atoms: _544  and  _547
REMARK  222  A    between atoms: _547  and  _548
REMARK  223  A    between atoms: _558  and  _560
REMARK  224  A    between atoms: _560  and  _561
REMARK  225  A    between atoms: _560  and  _563
REMARK  226  A    between atoms: _563  and  _564
REMARK  227  A    between atoms: _567  and  _569
REMARK  228  A    between atoms: _569  and  _570
REMARK  229  A    between atoms: _569  and  _572
REMARK  230  A    between atoms: _574  and  _576
REMARK  231  A    between atoms: _576  and  _577
REMARK  232  A    between atoms: _576  and  _579
REMARK  233  A    between atoms: _579  and  _580
REMARK  234  A    between atoms: _580  and  _581
REMARK  235  A    between atoms: _586  and  _588
REMARK  236  A    between atoms: _588  and  _589
REMARK  237  A    between atoms: _588  and  _591
REMARK  238  A    between atoms: _591  and  _592
REMARK  239  A    between atoms: _595  and  _597
REMARK  240  A    between atoms: _597  and  _598
REMARK  241  A    between atoms: _597  and  _600
REMARK  242  A    between atoms: _600  and  _601
REMARK  243  A    between atoms: _606  and  _607
REMARK  244  A    between atoms: _609  and  _611
REMARK  245  A    between atoms: _611  and  _612
REMARK  246  A    between atoms: _614  and  _616
REMARK  247  A    between atoms: _616  and  _617
REMARK  248  A    between atoms: _620  and  _622
REMARK  249  A    between atoms: _622  and  _623
REMARK  250  A    between atoms: _622  and  _625
REMARK  251  A    between atoms: _627  and  _629
REMARK  252  A    between atoms: _629  and  _630
REMARK  253  A    between atoms: _629  and  _632
REMARK  254  A    between atoms: _632  and  _633
REMARK  255  A    between atoms: _638  and  _639
REMARK  256  A    between atoms: _641  and  _643
REMARK  257  A    between atoms: _643  and  _644
REMARK  258  A    between atoms: _643  and  _646
REMARK  259  A    between atoms: _646  and  _647
REMARK  260  A    between atoms: _650  and  _652
REMARK  261  A    between atoms: _652  and  _653
REMARK  262  A    between atoms: _652  and  _655
REMARK  263  A    between atoms: _655  and  _656
REMARK  264  A    between atoms: _661  and  _663
REMARK  265  A    between atoms: _663  and  _664
REMARK  266  A    between atoms: _663  and  _666
REMARK  267  A    between atoms: _666  and  _667
REMARK  268  A    between atoms: _673  and  _675
REMARK  269  A    between atoms: _675  and  _676
REMARK  270  A    between atoms: _679  and  _681
REMARK  271  A    between atoms: _681  and  _682
REMARK  272  A    between atoms: _684  and  _686
REMARK  273  A    between atoms: _686  and  _687
REMARK  274  A    between atoms: _686  and  _689
REMARK  275  A    between atoms: _689  and  _690
REMARK  276  A    between atoms: _695  and  _696
REMARK  277  A    between atoms: _698  and  _700
REMARK  278  A    between atoms: _700  and  _701
REMARK  279  A    between atoms: _700  and  _703
REMARK  280  A    between atoms: _703  and  _704
REMARK  281  A    between atoms: _706  and  _708
REMARK  282  A    between atoms: _708  and  _709
REMARK  283  A    between atoms: _711  and  _713
REMARK  284  A    between atoms: _713  and  _714
REMARK                            x       y       z     vdW  Elec       q    Type
REMARK                         _______ _______ _______ _____ _____    ______ ____
ROOT
ATOM      1  O   HOH     1      26.120   9.258  48.655  0.00  0.00    +0.000 OA
ENDROOT
TORSDOF 0
REMARK  Name = ../refined-set-2016/3gnw/3gnw_pocket.pdb
REMARK  284 active torsions:
REMARK  status: ('A' for Active; 'I' for Inactive)
REMARK    1  A    between atoms: _1  and  _3
REMARK    2  A    between atoms: _3  and  _4
REMARK    3  A    between atoms: _3  and  _6
REMARK    4  A    between atoms: _6  and  _7
REMARK    5  A    between atoms: _7  and  _8
REMARK    6  A    between atoms: _8  and  _9
REMARK    7  A    between atoms: _9  and  _10
REMARK    8  A    between atoms: _14  and  _16
REMARK    9  A    between atoms: _16  and  _17
REMARK   10  A    between atoms: _16  and  _19
REMARK   11  A    between atoms: _19  and  _20
REMARK   12  A    between atoms: _20  and  _21
REMARK   13  A    between atoms: _24  and  _26
REMARK   14  A    between atoms: _26  and  _27
REMARK   15  A    between atoms: _26  and  _29
REMARK   16  A    between atoms: _29  and  _30
REMARK   17  A    between atoms: _36  and  _38
REMARK   18  A    between atoms: _38  and  _39
REMARK   19  A    between atoms: _38  and  _41
REMARK   20  A    between atoms: _41  and  _42
REMARK   21  A    between atoms: _42  and  _43
REMARK   22  A    between atoms: _43  and  _44
REMARK   23  A    between atoms: _53  and  _55
REMARK   24  A    between atoms: _55  and  _56
REMARK   25  A    between atoms: _55  and  _58
REMARK   26  A    between atoms: _58  and  _59
REMARK   27  A    between atoms: _62  and  _64
REMARK   28  A    between atoms: _64  and  _65
REMARK   29  A    between atoms: _67  and  _69
REMARK   30  A    between atoms: _69  and  _70
REMARK   31  A    between atoms: _69  and  _72
REMARK   32  A    between atoms: _72  and  _73
REMARK   33  A    between atoms: _79  and  _81
REMARK   34  A    between atoms: _81  and  _82
REMARK   35  A    between atoms: _81  and  _84
REMARK   36  A    between atoms: _84  and  _85
REMARK   37  A    between atoms: _90  and  _91
REMARK   38  A    between atoms: _93  and  _95
REMARK   39  A    between atoms: _95  and  _96
REMARK   40  A    between atoms: _95  and  _98
REMARK   41  A    between atoms: _98  and  _99
REMARK   42  A    between atoms: _102  and  _103
REMARK   43  A    between atoms: _108  and  _110
REMARK   44  A    between atoms: _110  and  _111
REMARK   45  A    between atoms: _110  and  _113
REMARK   46  A    between atoms: _113  and  _114
REMARK   47  A    between atoms: _114  and  _115
REMARK   48  A    between atoms: _115  and  _116
REMARK   49  A    between atoms: _116  and  _117
REMARK   50  A    between atoms: _121  and  _123
REMARK   51  A    between atoms: _123  and  _124
REMARK   52  A    between atoms: _123  and  _126
REMARK   53  A    between atoms: _126  and  _127
REMARK   54  A    between atoms: _127  and  _128
REMARK   55  A    between atoms: _133  and  _135
REMARK   56  A    between atoms: _135  and  _136
REMARK   57  A    between atoms: _135  and  _138
REMARK   58  A    between atoms: _138  and  _139
REMARK   59  A    between atoms: _139  and  _140
REMARK   60  A    between atoms: _140  and  _141
REMARK   61  A    between atoms: _150  and  _152
REMARK   62  A    between atoms: _152  and  _153
REMARK   63  A    between atoms: _152  and  _155
REMARK   64  A    between atoms: _158  and  _160
REMARK   65  A    between atoms: _160  and  _161
REMARK   66  A    between atoms: _160  and  _163
REMARK   67  A    between atoms: _163  and  _164
REMARK   68  A    between atoms: _167  and  _169
REMARK   69  A    between atoms: _169  and  _170
REMARK   70  A    between atoms: _169  and  _172
REMARK   71  A    between atoms: _172  and  _173
REMARK   72  A    between atoms: _179  and  _181
REMARK   73  A    between atoms: _181  and  _182
REMARK   74  A    between atoms: _181  and  _184
REMARK   75  A    between atoms: _184  and  _185
REMARK   76  A    between atoms: _188  and  _190
REMARK   77  A    between atoms: _190  and  _191
REMARK   78  A    between atoms: _190  and  _193
REMARK   79  A    between atoms: _193  and  _194
REMARK   80  A    between atoms: _196  and  _198
REMARK   81  A    between atoms: _198  and  _199
REMARK   82  A    between atoms: _198  and  _201
REMARK   83  A    between atoms: _201  and  _202
REMARK   84  A    between atoms: _205  and  _207
REMARK   85  A    between atoms: _207  and  _208
REMARK   86  A    between atoms: _207  and  _210
REMARK   87  A    between atoms: _210  and  _211
REMARK   88  A    between atoms: _213  and  _215
REMARK   89  A    between atoms: _215  and  _216
REMARK   90  A    between atoms: _215  and  _218
REMARK   91  A    between atoms: _218  and  _219
REMARK   92  A    between atoms: _224  and  _226
REMARK   93  A    between atoms: _226  and  _227
REMARK   94  A    between atoms: _226  and  _229
REMARK   95  A    between atoms: _229  and  _230
REMARK   96  A    between atoms: _233  and  _235
REMARK   97  A    between atoms: _235  and  _236
REMARK   98  A    between atoms: _235  and  _238
REMARK   99  A    between atoms: _238  and  _239
REMARK  100  A    between atoms: _244  and  _246
REMARK  101  A    between atoms: _246  and  _247
REMARK  102  A    between atoms: _249  and  _251
REMARK  103  A    between atoms: _251  and  _252
REMARK  104  A    between atoms: _251  and  _254
REMARK  105  A    between atoms: _254  and  _255
REMARK  106  A    between atoms: _258  and  _260
REMARK  107  A    between atoms: _260  and  _261
REMARK  108  A    between atoms: _260  and  _263
REMARK  109  A    between atoms: _263  and  _264
REMARK  110  A    between atoms: _267  and  _269
REMARK  111  A    between atoms: _269  and  _270
REMARK  112  A    between atoms: _269  and  _272
REMARK  113  A    between atoms: _272  and  _273
REMARK  114  A    between atoms: _276  and  _278
REMARK  115  A    between atoms: _278  and  _279
REMARK  116  A    between atoms: _278  and  _281
REMARK  117  A    between atoms: _281  and  _282
REMARK  118  A    between atoms: _284  and  _286
REMARK  119  A    between atoms: _286  and  _287
REMARK  120  A    between atoms: _286  and  _289
REMARK  121  A    between atoms: _291  and  _293
REMARK  122  A    between atoms: _293  and  _294
REMARK  123  A    between atoms: _293  and  _296
REMARK  124  A    between atoms: _296  and  _297
REMARK  125  A    between atoms: _299  and  _301
REMARK  126  A    between atoms: _301  and  _302
REMARK  127  A    between atoms: _301  and  _304
REMARK  128  A    between atoms: _304  and  _305
REMARK  129  A    between atoms: _307  and  _309
REMARK  130  A    between atoms: _309  and  _310
REMARK  131  A    between atoms: _309  and  _312
REMARK  132  A    between atoms: _312  and  _313
REMARK  133  A    between atoms: _318  and  _320
REMARK  134  A    between atoms: _320  and  _321
REMARK  135  A    between atoms: _320  and  _323
REMARK  136  A    between atoms: _323  and  _324
REMARK  137  A    between atoms: _329  and  _330
REMARK  138  A    between atoms: _332  and  _334
REMARK  139  A    between atoms: _334  and  _335
REMARK  140  A    between atoms: _334  and  _337
REMARK  141  A    between atoms: _337  and  _338
REMARK  142  A    between atoms: _341  and  _343
REMARK  143  A    between atoms: _343  and  _344
REMARK  144  A    between atoms: _343  and  _346
REMARK  145  A    between atoms: _346  and  _347
REMARK  146  A    between atoms: _350  and  _352
REMARK  147  A    between atoms: _352  and  _353
REMARK  148  A    between atoms: _352  and  _355
REMARK  149  A    between atoms: _355  and  _356
REMARK  150  A    between atoms: _356  and  _357
REMARK  151  A    between atoms: _357  and  _358
REMARK  152  A    between atoms: _367  and  _369
REMARK  153  A    between atoms: _369  and  _370
REMARK  154  A    between atoms: _369  and  _372
REMARK  155  A    between atoms: _372  and  _373
REMARK  156  A    between atoms: _377  and  _378
REMARK  157  A    between atoms: _383  and  _385
REMARK  158  A    between atoms: _385  and  _386
REMARK  159  A    between atoms: _385  and  _388
REMARK  160  A    between atoms: _388  and  _389
REMARK  161  A    between atoms: _389  and  _390
REMARK  162  A    between atoms: _390  and  _391
REMARK  163  A    between atoms: _400  and  _402
REMARK  164  A    between atoms: _402  and  _403
REMARK  165  A    between atoms: _402  and  _405
REMARK  166  A    between atoms: _405  and  _406
REMARK  167  A    between atoms: _406  and  _407
REMARK  168  A    between atoms: _410  and  _412
REMARK  169  A    between atoms: _412  and  _413
REMARK  170  A    between atoms: _412  and  _415
REMARK  171  A    between atoms: _415  and  _416
REMARK  172  A    between atoms: _419  and  _421
REMARK  173  A    between atoms: _421  and  _422
REMARK  174  A    between atoms: _421  and  _424
REMARK  175  A    between atoms: _424  and  _425
REMARK  176  A    between atoms: _430  and  _432
REMARK  177  A    between atoms: _432  and  _433
REMARK  178  A    between atoms: _432  and  _435
REMARK  179  A    between atoms: _435  and  _436
REMARK  180  A    between atoms: _438  and  _440
REMARK  181  A    between atoms: _440  and  _441
REMARK  182  A    between atoms: _440  and  _443
REMARK  183  A    between atoms: _443  and  _444
REMARK  184  A    between atoms: _454  and  _456
REMARK  185  A    between atoms: _456  and  _457
REMARK  186  A    between atoms: _456  and  _459
REMARK  187  A    between atoms: _459  and  _460
REMARK  188  A    between atoms: _463  and  _465
REMARK  189  A    between atoms: _465  and  _466
REMARK  190  A    between atoms: _468  and  _470
REMARK  191  A    between atoms: _470  and  _471
REMARK  192  A    between atoms: _470  and  _473
REMARK  193  A    between atoms: _473  and  _474
REMARK  194  A    between atoms: _479  and  _481
REMARK  195  A    between atoms: _481  and  _482
REMARK  196  A    between atoms: _481  and  _484
REMARK  197  A    between atoms: _484  and  _485
REMARK  198  A    between atoms: _488  and  _490
REMARK  199  A    between atoms: _490  and  _491
REMARK  200  A    between atoms: _490  and  _493
REMARK  201  A    between atoms: _493  and  _494
REMARK  202  A    between atoms: _497  and  _499
REMARK  203  A    between atoms: _499  and  _500
REMARK  204  A    between atoms: _499  and  _502
REMARK  205  A    between atoms: _502  and  _503
REMARK  206  A    between atoms: _503  and  _504
REMARK  207  A    between atoms: _506  and  _508
REMARK  208  A    between atoms: _508  and  _509
REMARK  209  A    between atoms: _508  and  _511
REMARK  210  A    between atoms: _511  and  _512
REMARK  211  A    between atoms: _517  and  _518
REMARK  212  A    between atoms: _520  and  _522
REMARK  213  A    between atoms: _522  and  _523
REMARK  214  A    between atoms: _527  and  _528
REMARK  215  A    between atoms: _533  and  _535
REMARK  216  A    between atoms: _535  and  _536
REMARK  217  A    between atoms: _535  and  _538
REMARK  218  A    between atoms: _538  and  _539
REMARK  219  A    between atoms: _542  and  _544
REMARK  220  A    between atoms: _544  and  _545
REMARK  221  A    between atoms: _544  and  _547
REMARK  222  A    between atoms: _547  and  _548
REMARK  223  A    between atoms: _558  and  _560
REMARK  224  A    between atoms: _560  and  _561
REMARK  225  A    between atoms: _560  and  _563
REMARK  226  A    between atoms: _563  and  _564
REMARK  227  A    between atoms: _567  and  _569
REMARK  228  A    between atoms: _569  and  _570
REMARK  229  A    between atoms: _569  and  _572
REMARK  230  A    between atoms: _574  and  _576
REMARK  231  A    between atoms: _576  and  _577
REMARK  232  A    between atoms: _576  and  _579
REMARK  233  A    between atoms: _579  and  _580
REMARK  234  A    between atoms: _580  and  _581
REMARK  235  A    between atoms: _586  and  _588
REMARK  236  A    between atoms: _588  and  _589
REMARK  237  A    between atoms: _588  and  _591
REMARK  238  A    between atoms: _591  and  _592
REMARK  239  A    between atoms: _595  and  _597
REMARK  240  A    between atoms: _597  and  _598
REMARK  241  A    between atoms: _597  and  _600
REMARK  242  A    between atoms: _600  and  _601
REMARK  243  A    between atoms: _606  and  _607
REMARK  244  A    between atoms: _609  and  _611
REMARK  245  A    between atoms: _611  and  _612
REMARK  246  A    between atoms: _614  and  _616
REMARK  247  A    between atoms: _616  and  _617
REMARK  248  A    between atoms: _620  and  _622
REMARK  249  A    between atoms: _622  and  _623
REMARK  250  A    between atoms: _622  and  _625
REMARK  251  A    between atoms: _627  and  _629
REMARK  252  A    between atoms: _629  and  _630
REMARK  253  A    between atoms: _629  and  _632
REMARK  254  A    between atoms: _632  and  _633
REMARK  255  A    between atoms: _638  and  _639
REMARK  256  A    between atoms: _641  and  _643
REMARK  257  A    between atoms: _643  and  _644
REMARK  258  A    between atoms: _643  and  _646
REMARK  259  A    between atoms: _646  and  _647
REMARK  260  A    between atoms: _650  and  _652
REMARK  261  A    between atoms: _652  and  _653
REMARK  262  A    between atoms: _652  and  _655
REMARK  263  A    between atoms: _655  and  _656
REMARK  264  A    between atoms: _661  and  _663
REMARK  265  A    between atoms: _663  and  _664
REMARK  266  A    between atoms: _663  and  _666
REMARK  267  A    between atoms: _666  and  _667
REMARK  268  A    between atoms: _673  and  _675
REMARK  269  A    between atoms: _675  and  _676
REMARK  270  A    between atoms: _679  and  _681
REMARK  271  A    between atoms: _681  and  _682
REMARK  272  A    between atoms: _684  and  _686
REMARK  273  A    between atoms: _686  and  _687
REMARK  274  A    between atoms: _686  and  _689
REMARK  275  A    between atoms: _689  and  _690
REMARK  276  A    between atoms: _695  and  _696
REMARK  277  A    between atoms: _698  and  _700
REMARK  278  A    between atoms: _700  and  _701
REMARK  279  A    between atoms: _700  and  _703
REMARK  280  A    between atoms: _703  and  _704
REMARK  281  A    between atoms: _706  and  _708
REMARK  282  A    between atoms: _708  and  _709
REMARK  283  A    between atoms: _711  and  _713
REMARK  284  A    between atoms: _713  and  _714
REMARK                            x       y       z     vdW  Elec       q    Type
REMARK                         _______ _______ _______ _____ _____    ______ ____
ROOT
ATOM      1  O   HOH     1      35.443   0.235  34.327  0.00  0.00    +0.000 OA
ENDROOT
TORSDOF 0
REMARK  Name = ../refined-set-2016/3gnw/3gnw_pocket.pdb
REMARK  284 active torsions:
REMARK  status: ('A' for Active; 'I' for Inactive)
REMARK    1  A    between atoms: _1  and  _3
REMARK    2  A    between atoms: _3  and  _4
REMARK    3  A    between atoms: _3  and  _6
REMARK    4  A    between atoms: _6  and  _7
REMARK    5  A    between atoms: _7  and  _8
REMARK    6  A    between atoms: _8  and  _9
REMARK    7  A    between atoms: _9  and  _10
REMARK    8  A    between atoms: _14  and  _16
REMARK    9  A    between atoms: _16  and  _17
REMARK   10  A    between atoms: _16  and  _19
REMARK   11  A    between atoms: _19  and  _20
REMARK   12  A    between atoms: _20  and  _21
REMARK   13  A    between atoms: _24  and  _26
REMARK   14  A    between atoms: _26  and  _27
REMARK   15  A    between atoms: _26  and  _29
REMARK   16  A    between atoms: _29  and  _30
REMARK   17  A    between atoms: _36  and  _38
REMARK   18  A    between atoms: _38  and  _39
REMARK   19  A    between atoms: _38  and  _41
REMARK   20  A    between atoms: _41  and  _42
REMARK   21  A    between atoms: _42  and  _43
REMARK   22  A    between atoms: _43  and  _44
REMARK   23  A    between atoms: _53  and  _55
REMARK   24  A    between atoms: _55  and  _56
REMARK   25  A    between atoms: _55  and  _58
REMARK   26  A    between atoms: _58  and  _59
REMARK   27  A    between atoms: _62  and  _64
REMARK   28  A    between atoms: _64  and  _65
REMARK   29  A    between atoms: _67  and  _69
REMARK   30  A    between atoms: _69  and  _70
REMARK   31  A    between atoms: _69  and  _72
REMARK   32  A    between atoms: _72  and  _73
REMARK   33  A    between atoms: _79  and  _81
REMARK   34  A    between atoms: _81  and  _82
REMARK   35  A    between atoms: _81  and  _84
REMARK   36  A    between atoms: _84  and  _85
REMARK   37  A    between atoms: _90  and  _91
REMARK   38  A    between atoms: _93  and  _95
REMARK   39  A    between atoms: _95  and  _96
REMARK   40  A    between atoms: _95  and  _98
REMARK   41  A    between atoms: _98  and  _99
REMARK   42  A    between atoms: _102  and  _103
REMARK   43  A    between atoms: _108  and  _110
REMARK   44  A    between atoms: _110  and  _111
REMARK   45  A    between atoms: _110  and  _113
REMARK   46  A    between atoms: _113  and  _114
REMARK   47  A    between atoms: _114  and  _115
REMARK   48  A    between atoms: _115  and  _116
REMARK   49  A    between atoms: _116  and  _117
REMARK   50  A    between atoms: _121  and  _123
REMARK   51  A    between atoms: _123  and  _124
REMARK   52  A    between atoms: _123  and  _126
REMARK   53  A    between atoms: _126  and  _127
REMARK   54  A    between atoms: _127  and  _128
REMARK   55  A    between atoms: _133  and  _135
REMARK   56  A    between atoms: _135  and  _136
REMARK   57  A    between atoms: _135  and  _138
REMARK   58  A    between atoms: _138  and  _139
REMARK   59  A    between atoms: _139  and  _140
REMARK   60  A    between atoms: _140  and  _141
REMARK   61  A    between atoms: _150  and  _152
REMARK   62  A    between atoms: _152  and  _153
REMARK   63  A    between atoms: _152  and  _155
REMARK   64  A    between atoms: _158  and  _160
REMARK   65  A    between atoms: _160  and  _161
REMARK   66  A    between atoms: _160  and  _163
REMARK   67  A    between atoms: _163  and  _164
REMARK   68  A    between atoms: _167  and  _169
REMARK   69  A    between atoms: _169  and  _170
REMARK   70  A    between atoms: _169  and  _172
REMARK   71  A    between atoms: _172  and  _173
REMARK   72  A    between atoms: _179  and  _181
REMARK   73  A    between atoms: _181  and  _182
REMARK   74  A    between atoms: _181  and  _184
REMARK   75  A    between atoms: _184  and  _185
REMARK   76  A    between atoms: _188  and  _190
REMARK   77  A    between atoms: _190  and  _191
REMARK   78  A    between atoms: _190  and  _193
REMARK   79  A    between atoms: _193  and  _194
REMARK   80  A    between atoms: _196  and  _198
REMARK   81  A    between atoms: _198  and  _199
REMARK   82  A    between atoms: _198  and  _201
REMARK   83  A    between atoms: _201  and  _202
REMARK   84  A    between atoms: _205  and  _207
REMARK   85  A    between atoms: _207  and  _208
REMARK   86  A    between atoms: _207  and  _210
REMARK   87  A    between atoms: _210  and  _211
REMARK   88  A    between atoms: _213  and  _215
REMARK   89  A    between atoms: _215  and  _216
REMARK   90  A    between atoms: _215  and  _218
REMARK   91  A    between atoms: _218  and  _219
REMARK   92  A    between atoms: _224  and  _226
REMARK   93  A    between atoms: _226  and  _227
REMARK   94  A    between atoms: _226  and  _229
REMARK   95  A    between atoms: _229  and  _230
REMARK   96  A    between atoms: _233  and  _235
REMARK   97  A    between atoms: _235  and  _236
REMARK   98  A    between atoms: _235  and  _238
REMARK   99  A    between atoms: _238  and  _239
REMARK  100  A    between atoms: _244  and  _246
REMARK  101  A    between atoms: _246  and  _247
REMARK  102  A    between atoms: _249  and  _251
REMARK  103  A    between atoms: _251  and  _252
REMARK  104  A    between atoms: _251  and  _254
REMARK  105  A    between atoms: _254  and  _255
REMARK  106  A    between atoms: _258  and  _260
REMARK  107  A    between atoms: _260  and  _261
REMARK  108  A    between atoms: _260  and  _263
REMARK  109  A    between atoms: _263  and  _264
REMARK  110  A    between atoms: _267  and  _269
REMARK  111  A    between atoms: _269  and  _270
REMARK  112  A    between atoms: _269  and  _272
REMARK  113  A    between atoms: _272  and  _273
REMARK  114  A    between atoms: _276  and  _278
REMARK  115  A    between atoms: _278  and  _279
REMARK  116  A    between atoms: _278  and  _281
REMARK  117  A    between atoms: _281  and  _282
REMARK  118  A    between atoms: _284  and  _286
REMARK  119  A    between atoms: _286  and  _287
REMARK  120  A    between atoms: _286  and  _289
REMARK  121  A    between atoms: _291  and  _293
REMARK  122  A    between atoms: _293  and  _294
REMARK  123  A    between atoms: _293  and  _296
REMARK  124  A    between atoms: _296  and  _297
REMARK  125  A    between atoms: _299  and  _301
REMARK  126  A    between atoms: _301  and  _302
REMARK  127  A    between atoms: _301  and  _304
REMARK  128  A    between atoms: _304  and  _305
REMARK  129  A    between atoms: _307  and  _309
REMARK  130  A    between atoms: _309  and  _310
REMARK  131  A    between atoms: _309  and  _312
REMARK  132  A    between atoms: _312  and  _313
REMARK  133  A    between atoms: _318  and  _320
REMARK  134  A    between atoms: _320  and  _321
REMARK  135  A    between atoms: _320  and  _323
REMARK  136  A    between atoms: _323  and  _324
REMARK  137  A    between atoms: _329  and  _330
REMARK  138  A    between atoms: _332  and  _334
REMARK  139  A    between atoms: _334  and  _335
REMARK  140  A    between atoms: _334  and  _337
REMARK  141  A    between atoms: _337  and  _338
REMARK  142  A    between atoms: _341  and  _343
REMARK  143  A    between atoms: _343  and  _344
REMARK  144  A    between atoms: _343  and  _346
REMARK  145  A    between atoms: _346  and  _347
REMARK  146  A    between atoms: _350  and  _352
REMARK  147  A    between atoms: _352  and  _353
REMARK  148  A    between atoms: _352  and  _355
REMARK  149  A    between atoms: _355  and  _356
REMARK  150  A    between atoms: _356  and  _357
REMARK  151  A    between atoms: _357  and  _358
REMARK  152  A    between atoms: _367  and  _369
REMARK  153  A    between atoms: _369  and  _370
REMARK  154  A    between atoms: _369  and  _372
REMARK  155  A    between atoms: _372  and  _373
REMARK  156  A    between atoms: _377  and  _378
REMARK  157  A    between atoms: _383  and  _385
REMARK  158  A    between atoms: _385  and  _386
REMARK  159  A    between atoms: _385  and  _388
REMARK  160  A    between atoms: _388  and  _389
REMARK  161  A    between atoms: _389  and  _390
REMARK  162  A    between atoms: _390  and  _391
REMARK  163  A    between atoms: _400  and  _402
REMARK  164  A    between atoms: _402  and  _403
REMARK  165  A    between atoms: _402  and  _405
REMARK  166  A    between atoms: _405  and  _406
REMARK  167  A    between atoms: _406  and  _407
REMARK  168  A    between atoms: _410  and  _412
REMARK  169  A    between atoms: _412  and  _413
REMARK  170  A    between atoms: _412  and  _415
REMARK  171  A    between atoms: _415  and  _416
REMARK  172  A    between atoms: _419  and  _421
REMARK  173  A    between atoms: _421  and  _422
REMARK  174  A    between atoms: _421  and  _424
REMARK  175  A    between atoms: _424  and  _425
REMARK  176  A    between atoms: _430  and  _432
REMARK  177  A    between atoms: _432  and  _433
REMARK  178  A    between atoms: _432  and  _435
REMARK  179  A    between atoms: _435  and  _436
REMARK  180  A    between atoms: _438  and  _440
REMARK  181  A    between atoms: _440  and  _441
REMARK  182  A    between atoms: _440  and  _443
REMARK  183  A    between atoms: _443  and  _444
REMARK  184  A    between atoms: _454  and  _456
REMARK  185  A    between atoms: _456  and  _457
REMARK  186  A    between atoms: _456  and  _459
REMARK  187  A    between atoms: _459  and  _460
REMARK  188  A    between atoms: _463  and  _465
REMARK  189  A    between atoms: _465  and  _466
REMARK  190  A    between atoms: _468  and  _470
REMARK  191  A    between atoms: _470  and  _471
REMARK  192  A    between atoms: _470  and  _473
REMARK  193  A    between atoms: _473  and  _474
REMARK  194  A    between atoms: _479  and  _481
REMARK  195  A    between atoms: _481  and  _482
REMARK  196  A    between atoms: _481  and  _484
REMARK  197  A    between atoms: _484  and  _485
REMARK  198  A    between atoms: _488  and  _490
REMARK  199  A    between atoms: _490  and  _491
REMARK  200  A    between atoms: _490  and  _493
REMARK  201  A    between atoms: _493  and  _494
REMARK  202  A    between atoms: _497  and  _499
REMARK  203  A    between atoms: _499  and  _500
REMARK  204  A    between atoms: _499  and  _502
REMARK  205  A    between atoms: _502  and  _503
REMARK  206  A    between atoms: _503  and  _504
REMARK  207  A    between atoms: _506  and  _508
REMARK  208  A    between atoms: _508  and  _509
REMARK  209  A    between atoms: _508  and  _511
REMARK  210  A    between atoms: _511  and  _512
REMARK  211  A    between atoms: _517  and  _518
REMARK  212  A    between atoms: _520  and  _522
REMARK  213  A    between atoms: _522  and  _523
REMARK  214  A    between atoms: _527  and  _528
REMARK  215  A    between atoms: _533  and  _535
REMARK  216  A    between atoms: _535  and  _536
REMARK  217  A    between atoms: _535  and  _538
REMARK  218  A    between atoms: _538  and  _539
REMARK  219  A    between atoms: _542  and  _544
REMARK  220  A    between atoms: _544  and  _545
REMARK  221  A    between atoms: _544  and  _547
REMARK  222  A    between atoms: _547  and  _548
REMARK  223  A    between atoms: _558  and  _560
REMARK  224  A    between atoms: _560  and  _561
REMARK  225  A    between atoms: _560  and  _563
REMARK  226  A    between atoms: _563  and  _564
REMARK  227  A    between atoms: _567  and  _569
REMARK  228  A    between atoms: _569  and  _570
REMARK  229  A    between atoms: _569  and  _572
REMARK  230  A    between atoms: _574  and  _576
REMARK  231  A    between atoms: _576  and  _577
REMARK  232  A    between atoms: _576  and  _579
REMARK  233  A    between atoms: _579  and  _580
REMARK  234  A    between atoms: _580  and  _581
REMARK  235  A    between atoms: _586  and  _588
REMARK  236  A    between atoms: _588  and  _589
REMARK  237  A    between atoms: _588  and  _591
REMARK  238  A    between atoms: _591  and  _592
REMARK  239  A    between atoms: _595  and  _597
REMARK  240  A    between atoms: _597  and  _598
REMARK  241  A    between atoms: _597  and  _600
REMARK  242  A    between atoms: _600  and  _601
REMARK  243  A    between atoms: _606  and  _607
REMARK  244  A    between atoms: _609  and  _611
REMARK  245  A    between atoms: _611  and  _612
REMARK  246  A    between atoms: _614  and  _616
REMARK  247  A    between atoms: _616  and  _617
REMARK  248  A    between atoms: _620  and  _622
REMARK  249  A    between atoms: _622  and  _623
REMARK  250  A    between atoms: _622  and  _625
REMARK  251  A    between atoms: _627  and  _629
REMARK  252  A    between atoms: _629  and  _630
REMARK  253  A    between atoms: _629  and  _632
REMARK  254  A    between atoms: _632  and  _633
REMARK  255  A    between atoms: _638  and  _639
REMARK  256  A    between atoms: _641  and  _643
REMARK  257  A    between atoms: _643  and  _644
REMARK  258  A    between atoms: _643  and  _646
REMARK  259  A    between atoms: _646  and  _647
REMARK  260  A    between atoms: _650  and  _652
REMARK  261  A    between atoms: _652  and  _653
REMARK  262  A    between atoms: _652  and  _655
REMARK  263  A    between atoms: _655  and  _656
REMARK  264  A    between atoms: _661  and  _663
REMARK  265  A    between atoms: _663  and  _664
REMARK  266  A    between atoms: _663  and  _666
REMARK  267  A    between atoms: _666  and  _667
REMARK  268  A    between atoms: _673  and  _675
REMARK  269  A    between atoms: _675  and  _676
REMARK  270  A    between atoms: _679  and  _681
REMARK  271  A    between atoms: _681  and  _682
REMARK  272  A    between atoms: _684  and  _686
REMARK  273  A    between atoms: _686  and  _687
REMARK  274  A    between atoms: _686  and  _689
REMARK  275  A    between atoms: _689  and  _690
REMARK  276  A    between atoms: _695  and  _696
REMARK  277  A    between atoms: _698  and  _700
REMARK  278  A    between atoms: _700  and  _701
REMARK  279  A    between atoms: _700  and  _703
REMARK  280  A    between atoms: _703  and  _704
REMARK  281  A    between atoms: _706  and  _708
REMARK  282  A    between atoms: _708  and  _709
REMARK  283  A    between atoms: _711  and  _713
REMARK  284  A    between atoms: _713  and  _714
REMARK                            x       y       z     vdW  Elec       q    Type
REMARK                         _______ _______ _______ _____ _____    ______ ____
ROOT
ATOM      1  O   HOH     1      25.785   9.731  25.889  0.00  0.00    +0.000 OA
ENDROOT
TORSDOF 0
REMARK  Name = ../refined-set-2016/3gnw/3gnw_pocket.pdb
REMARK  284 active torsions:
REMARK  status: ('A' for Active; 'I' for Inactive)
REMARK    1  A    between atoms: _1  and  _3
REMARK    2  A    between atoms: _3  and  _4
REMARK    3  A    between atoms: _3  and  _6
REMARK    4  A    between atoms: _6  and  _7
REMARK    5  A    between atoms: _7  and  _8
REMARK    6  A    between atoms: _8  and  _9
REMARK    7  A    between atoms: _9  and  _10
REMARK    8  A    between atoms: _14  and  _16
REMARK    9  A    between atoms: _16  and  _17
REMARK   10  A    between atoms: _16  and  _19
REMARK   11  A    between atoms: _19  and  _20
REMARK   12  A    between atoms: _20  and  _21
REMARK   13  A    between atoms: _24  and  _26
REMARK   14  A    between atoms: _26  and  _27
REMARK   15  A    between atoms: _26  and  _29
REMARK   16  A    between atoms: _29  and  _30
REMARK   17  A    between atoms: _36  and  _38
REMARK   18  A    between atoms: _38  and  _39
REMARK   19  A    between atoms: _38  and  _41
REMARK   20  A    between atoms: _41  and  _42
REMARK   21  A    between atoms: _42  and  _43
REMARK   22  A    between atoms: _43  and  _44
REMARK   23  A    between atoms: _53  and  _55
REMARK   24  A    between atoms: _55  and  _56
REMARK   25  A    between atoms: _55  and  _58
REMARK   26  A    between atoms: _58  and  _59
REMARK   27  A    between atoms: _62  and  _64
REMARK   28  A    between atoms: _64  and  _65
REMARK   29  A    between atoms: _67  and  _69
REMARK   30  A    between atoms: _69  and  _70
REMARK   31  A    between atoms: _69  and  _72
REMARK   32  A    between atoms: _72  and  _73
REMARK   33  A    between atoms: _79  and  _81
REMARK   34  A    between atoms: _81  and  _82
REMARK   35  A    between atoms: _81  and  _84
REMARK   36  A    between atoms: _84  and  _85
REMARK   37  A    between atoms: _90  and  _91
REMARK   38  A    between atoms: _93  and  _95
REMARK   39  A    between atoms: _95  and  _96
REMARK   40  A    between atoms: _95  and  _98
REMARK   41  A    between atoms: _98  and  _99
REMARK   42  A    between atoms: _102  and  _103
REMARK   43  A    between atoms: _108  and  _110
REMARK   44  A    between atoms: _110  and  _111
REMARK   45  A    between atoms: _110  and  _113
REMARK   46  A    between atoms: _113  and  _114
REMARK   47  A    between atoms: _114  and  _115
REMARK   48  A    between atoms: _115  and  _116
REMARK   49  A    between atoms: _116  and  _117
REMARK   50  A    between atoms: _121  and  _123
REMARK   51  A    between atoms: _123  and  _124
REMARK   52  A    between atoms: _123  and  _126
REMARK   53  A    between atoms: _126  and  _127
REMARK   54  A    between atoms: _127  and  _128
REMARK   55  A    between atoms: _133  and  _135
REMARK   56  A    between atoms: _135  and  _136
REMARK   57  A    between atoms: _135  and  _138
REMARK   58  A    between atoms: _138  and  _139
REMARK   59  A    between atoms: _139  and  _140
REMARK   60  A    between atoms: _140  and  _141
REMARK   61  A    between atoms: _150  and  _152
REMARK   62  A    between atoms: _152  and  _153
REMARK   63  A    between atoms: _152  and  _155
REMARK   64  A    between atoms: _158  and  _160
REMARK   65  A    between atoms: _160  and  _161
REMARK   66  A    between atoms: _160  and  _163
REMARK   67  A    between atoms: _163  and  _164
REMARK   68  A    between atoms: _167  and  _169
REMARK   69  A    between atoms: _169  and  _170
REMARK   70  A    between atoms: _169  and  _172
REMARK   71  A    between atoms: _172  and  _173
REMARK   72  A    between atoms: _179  and  _181
REMARK   73  A    between atoms: _181  and  _182
REMARK   74  A    between atoms: _181  and  _184
REMARK   75  A    between atoms: _184  and  _185
REMARK   76  A    between atoms: _188  and  _190
REMARK   77  A    between atoms: _190  and  _191
REMARK   78  A    between atoms: _190  and  _193
REMARK   79  A    between atoms: _193  and  _194
REMARK   80  A    between atoms: _196  and  _198
REMARK   81  A    between atoms: _198  and  _199
REMARK   82  A    between atoms: _198  and  _201
REMARK   83  A    between atoms: _201  and  _202
REMARK   84  A    between atoms: _205  and  _207
REMARK   85  A    between atoms: _207  and  _208
REMARK   86  A    between atoms: _207  and  _210
REMARK   87  A    between atoms: _210  and  _211
REMARK   88  A    between atoms: _213  and  _215
REMARK   89  A    between atoms: _215  and  _216
REMARK   90  A    between atoms: _215  and  _218
REMARK   91  A    between atoms: _218  and  _219
REMARK   92  A    between atoms: _224  and  _226
REMARK   93  A    between atoms: _226  and  _227
REMARK   94  A    between atoms: _226  and  _229
REMARK   95  A    between atoms: _229  and  _230
REMARK   96  A    between atoms: _233  and  _235
REMARK   97  A    between atoms: _235  and  _236
REMARK   98  A    between atoms: _235  and  _238
REMARK   99  A    between atoms: _238  and  _239
REMARK  100  A    between atoms: _244  and  _246
REMARK  101  A    between atoms: _246  and  _247
REMARK  102  A    between atoms: _249  and  _251
REMARK  103  A    between atoms: _251  and  _252
REMARK  104  A    between atoms: _251  and  _254
REMARK  105  A    between atoms: _254  and  _255
REMARK  106  A    between atoms: _258  and  _260
REMARK  107  A    between atoms: _260  and  _261
REMARK  108  A    between atoms: _260  and  _263
REMARK  109  A    between atoms: _263  and  _264
REMARK  110  A    between atoms: _267  and  _269
REMARK  111  A    between atoms: _269  and  _270
REMARK  112  A    between atoms: _269  and  _272
REMARK  113  A    between atoms: _272  and  _273
REMARK  114  A    between atoms: _276  and  _278
REMARK  115  A    between atoms: _278  and  _279
REMARK  116  A    between atoms: _278  and  _281
REMARK  117  A    between atoms: _281  and  _282
REMARK  118  A    between atoms: _284  and  _286
REMARK  119  A    between atoms: _286  and  _287
REMARK  120  A    between atoms: _286  and  _289
REMARK  121  A    between atoms: _291  and  _293
REMARK  122  A    between atoms: _293  and  _294
REMARK  123  A    between atoms: _293  and  _296
REMARK  124  A    between atoms: _296  and  _297
REMARK  125  A    between atoms: _299  and  _301
REMARK  126  A    between atoms: _301  and  _302
REMARK  127  A    between atoms: _301  and  _304
REMARK  128  A    between atoms: _304  and  _305
REMARK  129  A    between atoms: _307  and  _309
REMARK  130  A    between atoms: _309  and  _310
REMARK  131  A    between atoms: _309  and  _312
REMARK  132  A    between atoms: _312  and  _313
REMARK  133  A    between atoms: _318  and  _320
REMARK  134  A    between atoms: _320  and  _321
REMARK  135  A    between atoms: _320  and  _323
REMARK  136  A    between atoms: _323  and  _324
REMARK  137  A    between atoms: _329  and  _330
REMARK  138  A    between atoms: _332  and  _334
REMARK  139  A    between atoms: _334  and  _335
REMARK  140  A    between atoms: _334  and  _337
REMARK  141  A    between atoms: _337  and  _338
REMARK  142  A    between atoms: _341  and  _343
REMARK  143  A    between atoms: _343  and  _344
REMARK  144  A    between atoms: _343  and  _346
REMARK  145  A    between atoms: _346  and  _347
REMARK  146  A    between atoms: _350  and  _352
REMARK  147  A    between atoms: _352  and  _353
REMARK  148  A    between atoms: _352  and  _355
REMARK  149  A    between atoms: _355  and  _356
REMARK  150  A    between atoms: _356  and  _357
REMARK  151  A    between atoms: _357  and  _358
REMARK  152  A    between atoms: _367  and  _369
REMARK  153  A    between atoms: _369  and  _370
REMARK  154  A    between atoms: _369  and  _372
REMARK  155  A    between atoms: _372  and  _373
REMARK  156  A    between atoms: _377  and  _378
REMARK  157  A    between atoms: _383  and  _385
REMARK  158  A    between atoms: _385  and  _386
REMARK  159  A    between atoms: _385  and  _388
REMARK  160  A    between atoms: _388  and  _389
REMARK  161  A    between atoms: _389  and  _390
REMARK  162  A    between atoms: _390  and  _391
REMARK  163  A    between atoms: _400  and  _402
REMARK  164  A    between atoms: _402  and  _403
REMARK  165  A    between atoms: _402  and  _405
REMARK  166  A    between atoms: _405  and  _406
REMARK  167  A    between atoms: _406  and  _407
REMARK  168  A    between atoms: _410  and  _412
REMARK  169  A    between atoms: _412  and  _413
REMARK  170  A    between atoms: _412  and  _415
REMARK  171  A    between atoms: _415  and  _416
REMARK  172  A    between atoms: _419  and  _421
REMARK  173  A    between atoms: _421  and  _422
REMARK  174  A    between atoms: _421  and  _424
REMARK  175  A    between atoms: _424  and  _425
REMARK  176  A    between atoms: _430  and  _432
REMARK  177  A    between atoms: _432  and  _433
REMARK  178  A    between atoms: _432  and  _435
REMARK  179  A    between atoms: _435  and  _436
REMARK  180  A    between atoms: _438  and  _440
REMARK  181  A    between atoms: _440  and  _441
REMARK  182  A    between atoms: _440  and  _443
REMARK  183  A    between atoms: _443  and  _444
REMARK  184  A    between atoms: _454  and  _456
REMARK  185  A    between atoms: _456  and  _457
REMARK  186  A    between atoms: _456  and  _459
REMARK  187  A    between atoms: _459  and  _460
REMARK  188  A    between atoms: _463  and  _465
REMARK  189  A    between atoms: _465  and  _466
REMARK  190  A    between atoms: _468  and  _470
REMARK  191  A    between atoms: _470  and  _471
REMARK  192  A    between atoms: _470  and  _473
REMARK  193  A    between atoms: _473  and  _474
REMARK  194  A    between atoms: _479  and  _481
REMARK  195  A    between atoms: _481  and  _482
REMARK  196  A    between atoms: _481  and  _484
REMARK  197  A    between atoms: _484  and  _485
REMARK  198  A    between atoms: _488  and  _490
REMARK  199  A    between atoms: _490  and  _491
REMARK  200  A    between atoms: _490  and  _493
REMARK  201  A    between atoms: _493  and  _494
REMARK  202  A    between atoms: _497  and  _499
REMARK  203  A    between atoms: _499  and  _500
REMARK  204  A    between atoms: _499  and  _502
REMARK  205  A    between atoms: _502  and  _503
REMARK  206  A    between atoms: _503  and  _504
REMARK  207  A    between atoms: _506  and  _508
REMARK  208  A    between atoms: _508  and  _509
REMARK  209  A    between atoms: _508  and  _511
REMARK  210  A    between atoms: _511  and  _512
REMARK  211  A    between atoms: _517  and  _518
REMARK  212  A    between atoms: _520  and  _522
REMARK  213  A    between atoms: _522  and  _523
REMARK  214  A    between atoms: _527  and  _528
REMARK  215  A    between atoms: _533  and  _535
REMARK  216  A    between atoms: _535  and  _536
REMARK  217  A    between atoms: _535  and  _538
REMARK  218  A    between atoms: _538  and  _539
REMARK  219  A    between atoms: _542  and  _544
REMARK  220  A    between atoms: _544  and  _545
REMARK  221  A    between atoms: _544  and  _547
REMARK  222  A    between atoms: _547  and  _548
REMARK  223  A    between atoms: _558  and  _560
REMARK  224  A    between atoms: _560  and  _561
REMARK  225  A    between atoms: _560  and  _563
REMARK  226  A    between atoms: _563  and  _564
REMARK  227  A    between atoms: _567  and  _569
REMARK  228  A    between atoms: _569  and  _570
REMARK  229  A    between atoms: _569  and  _572
REMARK  230  A    between atoms: _574  and  _576
REMARK  231  A    between atoms: _576  and  _577
REMARK  232  A    between atoms: _576  and  _579
REMARK  233  A    between atoms: _579  and  _580
REMARK  234  A    between atoms: _580  and  _581
REMARK  235  A    between atoms: _586  and  _588
REMARK  236  A    between atoms: _588  and  _589
REMARK  237  A    between atoms: _588  and  _591
REMARK  238  A    between atoms: _591  and  _592
REMARK  239  A    between atoms: _595  and  _597
REMARK  240  A    between atoms: _597  and  _598
REMARK  241  A    between atoms: _597  and  _600
REMARK  242  A    between atoms: _600  and  _601
REMARK  243  A    between atoms: _606  and  _607
REMARK  244  A    between atoms: _609  and  _611
REMARK  245  A    between atoms: _611  and  _612
REMARK  246  A    between atoms: _614  and  _616
REMARK  247  A    between atoms: _616  and  _617
REMARK  248  A    between atoms: _620  and  _622
REMARK  249  A    between atoms: _622  and  _623
REMARK  250  A    between atoms: _622  and  _625
REMARK  251  A    between atoms: _627  and  _629
REMARK  252  A    between atoms: _629  and  _630
REMARK  253  A    between atoms: _629  and  _632
REMARK  254  A    between atoms: _632  and  _633
REMARK  255  A    between atoms: _638  and  _639
REMARK  256  A    between atoms: _641  and  _643
REMARK  257  A    between atoms: _643  and  _644
REMARK  258  A    between atoms: _643  and  _646
REMARK  259  A    between atoms: _646  and  _647
REMARK  260  A    between atoms: _650  and  _652
REMARK  261  A    between atoms: _652  and  _653
REMARK  262  A    between atoms: _652  and  _655
REMARK  263  A    between atoms: _655  and  _656
REMARK  264  A    between atoms: _661  and  _663
REMARK  265  A    between atoms: _663  and  _664
REMARK  266  A    between atoms: _663  and  _666
REMARK  267  A    between atoms: _666  and  _667
REMARK  268  A    between atoms: _673  and  _675
REMARK  269  A    between atoms: _675  and  _676
REMARK  270  A    between atoms: _679  and  _681
REMARK  271  A    between atoms: _681  and  _682
REMARK  272  A    between atoms: _684  and  _686
REMARK  273  A    between atoms: _686  and  _687
REMARK  274  A    between atoms: _686  and  _689
REMARK  275  A    between atoms: _689  and  _690
REMARK  276  A    between atoms: _695  and  _696
REMARK  277  A    between atoms: _698  and  _700
REMARK  278  A    between atoms: _700  and  _701
REMARK  279  A    between atoms: _700  and  _703
REMARK  280  A    between atoms: _703  and  _704
REMARK  281  A    between atoms: _706  and  _708
REMARK  282  A    between atoms: _708  and  _709
REMARK  283  A    between atoms: _711  and  _713
REMARK  284  A    between atoms: _713  and  _714
REMARK                            x       y       z     vdW  Elec       q    Type
REMARK                         _______ _______ _______ _____ _____    ______ ____
ROOT
ATOM      1  O   HOH     1      28.996   2.988  32.429  0.00  0.00    +0.000 OA
ENDROOT
TORSDOF 0
REMARK  Name = ../refined-set-2016/3gnw/3gnw_pocket.pdb
REMARK  284 active torsions:
REMARK  status: ('A' for Active; 'I' for Inactive)
REMARK    1  A    between atoms: _1  and  _3
REMARK    2  A    between atoms: _3  and  _4
REMARK    3  A    between atoms: _3  and  _6
REMARK    4  A    between atoms: _6  and  _7
REMARK    5  A    between atoms: _7  and  _8
REMARK    6  A    between atoms: _8  and  _9
REMARK    7  A    between atoms: _9  and  _10
REMARK    8  A    between atoms: _14  and  _16
REMARK    9  A    between atoms: _16  and  _17
REMARK   10  A    between atoms: _16  and  _19
REMARK   11  A    between atoms: _19  and  _20
REMARK   12  A    between atoms: _20  and  _21
REMARK   13  A    between atoms: _24  and  _26
REMARK   14  A    between atoms: _26  and  _27
REMARK   15  A    between atoms: _26  and  _29
REMARK   16  A    between atoms: _29  and  _30
REMARK   17  A    between atoms: _36  and  _38
REMARK   18  A    between atoms: _38  and  _39
REMARK   19  A    between atoms: _38  and  _41
REMARK   20  A    between atoms: _41  and  _42
REMARK   21  A    between atoms: _42  and  _43
REMARK   22  A    between atoms: _43  and  _44
REMARK   23  A    between atoms: _53  and  _55
REMARK   24  A    between atoms: _55  and  _56
REMARK   25  A    between atoms: _55  and  _58
REMARK   26  A    between atoms: _58  and  _59
REMARK   27  A    between atoms: _62  and  _64
REMARK   28  A    between atoms: _64  and  _65
REMARK   29  A    between atoms: _67  and  _69
REMARK   30  A    between atoms: _69  and  _70
REMARK   31  A    between atoms: _69  and  _72
REMARK   32  A    between atoms: _72  and  _73
REMARK   33  A    between atoms: _79  and  _81
REMARK   34  A    between atoms: _81  and  _82
REMARK   35  A    between atoms: _81  and  _84
REMARK   36  A    between atoms: _84  and  _85
REMARK   37  A    between atoms: _90  and  _91
REMARK   38  A    between atoms: _93  and  _95
REMARK   39  A    between atoms: _95  and  _96
REMARK   40  A    between atoms: _95  and  _98
REMARK   41  A    between atoms: _98  and  _99
REMARK   42  A    between atoms: _102  and  _103
REMARK   43  A    between atoms: _108  and  _110
REMARK   44  A    between atoms: _110  and  _111
REMARK   45  A    between atoms: _110  and  _113
REMARK   46  A    between atoms: _113  and  _114
REMARK   47  A    between atoms: _114  and  _115
REMARK   48  A    between atoms: _115  and  _116
REMARK   49  A    between atoms: _116  and  _117
REMARK   50  A    between atoms: _121  and  _123
REMARK   51  A    between atoms: _123  and  _124
REMARK   52  A    between atoms: _123  and  _126
REMARK   53  A    between atoms: _126  and  _127
REMARK   54  A    between atoms: _127  and  _128
REMARK   55  A    between atoms: _133  and  _135
REMARK   56  A    between atoms: _135  and  _136
REMARK   57  A    between atoms: _135  and  _138
REMARK   58  A    between atoms: _138  and  _139
REMARK   59  A    between atoms: _139  and  _140
REMARK   60  A    between atoms: _140  and  _141
REMARK   61  A    between atoms: _150  and  _152
REMARK   62  A    between atoms: _152  and  _153
REMARK   63  A    between atoms: _152  and  _155
REMARK   64  A    between atoms: _158  and  _160
REMARK   65  A    between atoms: _160  and  _161
REMARK   66  A    between atoms: _160  and  _163
REMARK   67  A    between atoms: _163  and  _164
REMARK   68  A    between atoms: _167  and  _169
REMARK   69  A    between atoms: _169  and  _170
REMARK   70  A    between atoms: _169  and  _172
REMARK   71  A    between atoms: _172  and  _173
REMARK   72  A    between atoms: _179  and  _181
REMARK   73  A    between atoms: _181  and  _182
REMARK   74  A    between atoms: _181  and  _184
REMARK   75  A    between atoms: _184  and  _185
REMARK   76  A    between atoms: _188  and  _190
REMARK   77  A    between atoms: _190  and  _191
REMARK   78  A    between atoms: _190  and  _193
REMARK   79  A    between atoms: _193  and  _194
REMARK   80  A    between atoms: _196  and  _198
REMARK   81  A    between atoms: _198  and  _199
REMARK   82  A    between atoms: _198  and  _201
REMARK   83  A    between atoms: _201  and  _202
REMARK   84  A    between atoms: _205  and  _207
REMARK   85  A    between atoms: _207  and  _208
REMARK   86  A    between atoms: _207  and  _210
REMARK   87  A    between atoms: _210  and  _211
REMARK   88  A    between atoms: _213  and  _215
REMARK   89  A    between atoms: _215  and  _216
REMARK   90  A    between atoms: _215  and  _218
REMARK   91  A    between atoms: _218  and  _219
REMARK   92  A    between atoms: _224  and  _226
REMARK   93  A    between atoms: _226  and  _227
REMARK   94  A    between atoms: _226  and  _229
REMARK   95  A    between atoms: _229  and  _230
REMARK   96  A    between atoms: _233  and  _235
REMARK   97  A    between atoms: _235  and  _236
REMARK   98  A    between atoms: _235  and  _238
REMARK   99  A    between atoms: _238  and  _239
REMARK  100  A    between atoms: _244  and  _246
REMARK  101  A    between atoms: _246  and  _247
REMARK  102  A    between atoms: _249  and  _251
REMARK  103  A    between atoms: _251  and  _252
REMARK  104  A    between atoms: _251  and  _254
REMARK  105  A    between atoms: _254  and  _255
REMARK  106  A    between atoms: _258  and  _260
REMARK  107  A    between atoms: _260  and  _261
REMARK  108  A    between atoms: _260  and  _263
REMARK  109  A    between atoms: _263  and  _264
REMARK  110  A    between atoms: _267  and  _269
REMARK  111  A    between atoms: _269  and  _270
REMARK  112  A    between atoms: _269  and  _272
REMARK  113  A    between atoms: _272  and  _273
REMARK  114  A    between atoms: _276  and  _278
REMARK  115  A    between atoms: _278  and  _279
REMARK  116  A    between atoms: _278  and  _281
REMARK  117  A    between atoms: _281  and  _282
REMARK  118  A    between atoms: _284  and  _286
REMARK  119  A    between atoms: _286  and  _287
REMARK  120  A    between atoms: _286  and  _289
REMARK  121  A    between atoms: _291  and  _293
REMARK  122  A    between atoms: _293  and  _294
REMARK  123  A    between atoms: _293  and  _296
REMARK  124  A    between atoms: _296  and  _297
REMARK  125  A    between atoms: _299  and  _301
REMARK  126  A    between atoms: _301  and  _302
REMARK  127  A    between atoms: _301  and  _304
REMARK  128  A    between atoms: _304  and  _305
REMARK  129  A    between atoms: _307  and  _309
REMARK  130  A    between atoms: _309  and  _310
REMARK  131  A    between atoms: _309  and  _312
REMARK  132  A    between atoms: _312  and  _313
REMARK  133  A    between atoms: _318  and  _320
REMARK  134  A    between atoms: _320  and  _321
REMARK  135  A    between atoms: _320  and  _323
REMARK  136  A    between atoms: _323  and  _324
REMARK  137  A    between atoms: _329  and  _330
REMARK  138  A    between atoms: _332  and  _334
REMARK  139  A    between atoms: _334  and  _335
REMARK  140  A    between atoms: _334  and  _337
REMARK  141  A    between atoms: _337  and  _338
REMARK  142  A    between atoms: _341  and  _343
REMARK  143  A    between atoms: _343  and  _344
REMARK  144  A    between atoms: _343  and  _346
REMARK  145  A    between atoms: _346  and  _347
REMARK  146  A    between atoms: _350  and  _352
REMARK  147  A    between atoms: _352  and  _353
REMARK  148  A    between atoms: _352  and  _355
REMARK  149  A    between atoms: _355  and  _356
REMARK  150  A    between atoms: _356  and  _357
REMARK  151  A    between atoms: _357  and  _358
REMARK  152  A    between atoms: _367  and  _369
REMARK  153  A    between atoms: _369  and  _370
REMARK  154  A    between atoms: _369  and  _372
REMARK  155  A    between atoms: _372  and  _373
REMARK  156  A    between atoms: _377  and  _378
REMARK  157  A    between atoms: _383  and  _385
REMARK  158  A    between atoms: _385  and  _386
REMARK  159  A    between atoms: _385  and  _388
REMARK  160  A    between atoms: _388  and  _389
REMARK  161  A    between atoms: _389  and  _390
REMARK  162  A    between atoms: _390  and  _391
REMARK  163  A    between atoms: _400  and  _402
REMARK  164  A    between atoms: _402  and  _403
REMARK  165  A    between atoms: _402  and  _405
REMARK  166  A    between atoms: _405  and  _406
REMARK  167  A    between atoms: _406  and  _407
REMARK  168  A    between atoms: _410  and  _412
REMARK  169  A    between atoms: _412  and  _413
REMARK  170  A    between atoms: _412  and  _415
REMARK  171  A    between atoms: _415  and  _416
REMARK  172  A    between atoms: _419  and  _421
REMARK  173  A    between atoms: _421  and  _422
REMARK  174  A    between atoms: _421  and  _424
REMARK  175  A    between atoms: _424  and  _425
REMARK  176  A    between atoms: _430  and  _432
REMARK  177  A    between atoms: _432  and  _433
REMARK  178  A    between atoms: _432  and  _435
REMARK  179  A    between atoms: _435  and  _436
REMARK  180  A    between atoms: _438  and  _440
REMARK  181  A    between atoms: _440  and  _441
REMARK  182  A    between atoms: _440  and  _443
REMARK  183  A    between atoms: _443  and  _444
REMARK  184  A    between atoms: _454  and  _456
REMARK  185  A    between atoms: _456  and  _457
REMARK  186  A    between atoms: _456  and  _459
REMARK  187  A    between atoms: _459  and  _460
REMARK  188  A    between atoms: _463  and  _465
REMARK  189  A    between atoms: _465  and  _466
REMARK  190  A    between atoms: _468  and  _470
REMARK  191  A    between atoms: _470  and  _471
REMARK  192  A    between atoms: _470  and  _473
REMARK  193  A    between atoms: _473  and  _474
REMARK  194  A    between atoms: _479  and  _481
REMARK  195  A    between atoms: _481  and  _482
REMARK  196  A    between atoms: _481  and  _484
REMARK  197  A    between atoms: _484  and  _485
REMARK  198  A    between atoms: _488  and  _490
REMARK  199  A    between atoms: _490  and  _491
REMARK  200  A    between atoms: _490  and  _493
REMARK  201  A    between atoms: _493  and  _494
REMARK  202  A    between atoms: _497  and  _499
REMARK  203  A    between atoms: _499  and  _500
REMARK  204  A    between atoms: _499  and  _502
REMARK  205  A    between atoms: _502  and  _503
REMARK  206  A    between atoms: _503  and  _504
REMARK  207  A    between atoms: _506  and  _508
REMARK  208  A    between atoms: _508  and  _509
REMARK  209  A    between atoms: _508  and  _511
REMARK  210  A    between atoms: _511  and  _512
REMARK  211  A    between atoms: _517  and  _518
REMARK  212  A    between atoms: _520  and  _522
REMARK  213  A    between atoms: _522  and  _523
REMARK  214  A    between atoms: _527  and  _528
REMARK  215  A    between atoms: _533  and  _535
REMARK  216  A    between atoms: _535  and  _536
REMARK  217  A    between atoms: _535  and  _538
REMARK  218  A    between atoms: _538  and  _539
REMARK  219  A    between atoms: _542  and  _544
REMARK  220  A    between atoms: _544  and  _545
REMARK  221  A    between atoms: _544  and  _547
REMARK  222  A    between atoms: _547  and  _548
REMARK  223  A    between atoms: _558  and  _560
REMARK  224  A    between atoms: _560  and  _561
REMARK  225  A    between atoms: _560  and  _563
REMARK  226  A    between atoms: _563  and  _564
REMARK  227  A    between atoms: _567  and  _569
REMARK  228  A    between atoms: _569  and  _570
REMARK  229  A    between atoms: _569  and  _572
REMARK  230  A    between atoms: _574  and  _576
REMARK  231  A    between atoms: _576  and  _577
REMARK  232  A    between atoms: _576  and  _579
REMARK  233  A    between atoms: _579  and  _580
REMARK  234  A    between atoms: _580  and  _581
REMARK  235  A    between atoms: _586  and  _588
REMARK  236  A    between atoms: _588  and  _589
REMARK  237  A    between atoms: _588  and  _591
REMARK  238  A    between atoms: _591  and  _592
REMARK  239  A    between atoms: _595  and  _597
REMARK  240  A    between atoms: _597  and  _598
REMARK  241  A    between atoms: _597  and  _600
REMARK  242  A    between atoms: _600  and  _601
REMARK  243  A    between atoms: _606  and  _607
REMARK  244  A    between atoms: _609  and  _611
REMARK  245  A    between atoms: _611  and  _612
REMARK  246  A    between atoms: _614  and  _616
REMARK  247  A    between atoms: _616  and  _617
REMARK  248  A    between atoms: _620  and  _622
REMARK  249  A    between atoms: _622  and  _623
REMARK  250  A    between atoms: _622  and  _625
REMARK  251  A    between atoms: _627  and  _629
REMARK  252  A    between atoms: _629  and  _630
REMARK  253  A    between atoms: _629  and  _632
REMARK  254  A    between atoms: _632  and  _633
REMARK  255  A    between atoms: _638  and  _639
REMARK  256  A    between atoms: _641  and  _643
REMARK  257  A    between atoms: _643  and  _644
REMARK  258  A    between atoms: _643  and  _646
REMARK  259  A    between atoms: _646  and  _647
REMARK  260  A    between atoms: _650  and  _652
REMARK  261  A    between atoms: _652  and  _653
REMARK  262  A    between atoms: _652  and  _655
REMARK  263  A    between atoms: _655  and  _656
REMARK  264  A    between atoms: _661  and  _663
REMARK  265  A    between atoms: _663  and  _664
REMARK  266  A    between atoms: _663  and  _666
REMARK  267  A    between atoms: _666  and  _667
REMARK  268  A    between atoms: _673  and  _675
REMARK  269  A    between atoms: _675  and  _676
REMARK  270  A    between atoms: _679  and  _681
REMARK  271  A    between atoms: _681  and  _682
REMARK  272  A    between atoms: _684  and  _686
REMARK  273  A    between atoms: _686  and  _687
REMARK  274  A    between atoms: _686  and  _689
REMARK  275  A    between atoms: _689  and  _690
REMARK  276  A    between atoms: _695  and  _696
REMARK  277  A    between atoms: _698  and  _700
REMARK  278  A    between atoms: _700  and  _701
REMARK  279  A    between atoms: _700  and  _703
REMARK  280  A    between atoms: _703  and  _704
REMARK  281  A    between atoms: _706  and  _708
REMARK  282  A    between atoms: _708  and  _709
REMARK  283  A    between atoms: _711  and  _713
REMARK  284  A    between atoms: _713  and  _714
REMARK                            x       y       z     vdW  Elec       q    Type
REMARK                         _______ _______ _______ _____ _____    ______ ____
ROOT
ATOM      1  O   HOH     1      29.822   5.533  32.930  0.00  0.00    +0.000 OA
ENDROOT
TORSDOF 0
REMARK  Name = ../refined-set-2016/3gnw/3gnw_pocket.pdb
REMARK  284 active torsions:
REMARK  status: ('A' for Active; 'I' for Inactive)
REMARK    1  A    between atoms: _1  and  _3
REMARK    2  A    between atoms: _3  and  _4
REMARK    3  A    between atoms: _3  and  _6
REMARK    4  A    between atoms: _6  and  _7
REMARK    5  A    between atoms: _7  and  _8
REMARK    6  A    between atoms: _8  and  _9
REMARK    7  A    between atoms: _9  and  _10
REMARK    8  A    between atoms: _14  and  _16
REMARK    9  A    between atoms: _16  and  _17
REMARK   10  A    between atoms: _16  and  _19
REMARK   11  A    between atoms: _19  and  _20
REMARK   12  A    between atoms: _20  and  _21
REMARK   13  A    between atoms: _24  and  _26
REMARK   14  A    between atoms: _26  and  _27
REMARK   15  A    between atoms: _26  and  _29
REMARK   16  A    between atoms: _29  and  _30
REMARK   17  A    between atoms: _36  and  _38
REMARK   18  A    between atoms: _38  and  _39
REMARK   19  A    between atoms: _38  and  _41
REMARK   20  A    between atoms: _41  and  _42
REMARK   21  A    between atoms: _42  and  _43
REMARK   22  A    between atoms: _43  and  _44
REMARK   23  A    between atoms: _53  and  _55
REMARK   24  A    between atoms: _55  and  _56
REMARK   25  A    between atoms: _55  and  _58
REMARK   26  A    between atoms: _58  and  _59
REMARK   27  A    between atoms: _62  and  _64
REMARK   28  A    between atoms: _64  and  _65
REMARK   29  A    between atoms: _67  and  _69
REMARK   30  A    between atoms: _69  and  _70
REMARK   31  A    between atoms: _69  and  _72
REMARK   32  A    between atoms: _72  and  _73
REMARK   33  A    between atoms: _79  and  _81
REMARK   34  A    between atoms: _81  and  _82
REMARK   35  A    between atoms: _81  and  _84
REMARK   36  A    between atoms: _84  and  _85
REMARK   37  A    between atoms: _90  and  _91
REMARK   38  A    between atoms: _93  and  _95
REMARK   39  A    between atoms: _95  and  _96
REMARK   40  A    between atoms: _95  and  _98
REMARK   41  A    between atoms: _98  and  _99
REMARK   42  A    between atoms: _102  and  _103
REMARK   43  A    between atoms: _108  and  _110
REMARK   44  A    between atoms: _110  and  _111
REMARK   45  A    between atoms: _110  and  _113
REMARK   46  A    between atoms: _113  and  _114
REMARK   47  A    between atoms: _114  and  _115
REMARK   48  A    between atoms: _115  and  _116
REMARK   49  A    between atoms: _116  and  _117
REMARK   50  A    between atoms: _121  and  _123
REMARK   51  A    between atoms: _123  and  _124
REMARK   52  A    between atoms: _123  and  _126
REMARK   53  A    between atoms: _126  and  _127
REMARK   54  A    between atoms: _127  and  _128
REMARK   55  A    between atoms: _133  and  _135
REMARK   56  A    between atoms: _135  and  _136
REMARK   57  A    between atoms: _135  and  _138
REMARK   58  A    between atoms: _138  and  _139
REMARK   59  A    between atoms: _139  and  _140
REMARK   60  A    between atoms: _140  and  _141
REMARK   61  A    between atoms: _150  and  _152
REMARK   62  A    between atoms: _152  and  _153
REMARK   63  A    between atoms: _152  and  _155
REMARK   64  A    between atoms: _158  and  _160
REMARK   65  A    between atoms: _160  and  _161
REMARK   66  A    between atoms: _160  and  _163
REMARK   67  A    between atoms: _163  and  _164
REMARK   68  A    between atoms: _167  and  _169
REMARK   69  A    between atoms: _169  and  _170
REMARK   70  A    between atoms: _169  and  _172
REMARK   71  A    between atoms: _172  and  _173
REMARK   72  A    between atoms: _179  and  _181
REMARK   73  A    between atoms: _181  and  _182
REMARK   74  A    between atoms: _181  and  _184
REMARK   75  A    between atoms: _184  and  _185
REMARK   76  A    between atoms: _188  and  _190
REMARK   77  A    between atoms: _190  and  _191
REMARK   78  A    between atoms: _190  and  _193
REMARK   79  A    between atoms: _193  and  _194
REMARK   80  A    between atoms: _196  and  _198
REMARK   81  A    between atoms: _198  and  _199
REMARK   82  A    between atoms: _198  and  _201
REMARK   83  A    between atoms: _201  and  _202
REMARK   84  A    between atoms: _205  and  _207
REMARK   85  A    between atoms: _207  and  _208
REMARK   86  A    between atoms: _207  and  _210
REMARK   87  A    between atoms: _210  and  _211
REMARK   88  A    between atoms: _213  and  _215
REMARK   89  A    between atoms: _215  and  _216
REMARK   90  A    between atoms: _215  and  _218
REMARK   91  A    between atoms: _218  and  _219
REMARK   92  A    between atoms: _224  and  _226
REMARK   93  A    between atoms: _226  and  _227
REMARK   94  A    between atoms: _226  and  _229
REMARK   95  A    between atoms: _229  and  _230
REMARK   96  A    between atoms: _233  and  _235
REMARK   97  A    between atoms: _235  and  _236
REMARK   98  A    between atoms: _235  and  _238
REMARK   99  A    between atoms: _238  and  _239
REMARK  100  A    between atoms: _244  and  _246
REMARK  101  A    between atoms: _246  and  _247
REMARK  102  A    between atoms: _249  and  _251
REMARK  103  A    between atoms: _251  and  _252
REMARK  104  A    between atoms: _251  and  _254
REMARK  105  A    between atoms: _254  and  _255
REMARK  106  A    between atoms: _258  and  _260
REMARK  107  A    between atoms: _260  and  _261
REMARK  108  A    between atoms: _260  and  _263
REMARK  109  A    between atoms: _263  and  _264
REMARK  110  A    between atoms: _267  and  _269
REMARK  111  A    between atoms: _269  and  _270
REMARK  112  A    between atoms: _269  and  _272
REMARK  113  A    between atoms: _272  and  _273
REMARK  114  A    between atoms: _276  and  _278
REMARK  115  A    between atoms: _278  and  _279
REMARK  116  A    between atoms: _278  and  _281
REMARK  117  A    between atoms: _281  and  _282
REMARK  118  A    between atoms: _284  and  _286
REMARK  119  A    between atoms: _286  and  _287
REMARK  120  A    between atoms: _286  and  _289
REMARK  121  A    between atoms: _291  and  _293
REMARK  122  A    between atoms: _293  and  _294
REMARK  123  A    between atoms: _293  and  _296
REMARK  124  A    between atoms: _296  and  _297
REMARK  125  A    between atoms: _299  and  _301
REMARK  126  A    between atoms: _301  and  _302
REMARK  127  A    between atoms: _301  and  _304
REMARK  128  A    between atoms: _304  and  _305
REMARK  129  A    between atoms: _307  and  _309
REMARK  130  A    between atoms: _309  and  _310
REMARK  131  A    between atoms: _309  and  _312
REMARK  132  A    between atoms: _312  and  _313
REMARK  133  A    between atoms: _318  and  _320
REMARK  134  A    between atoms: _320  and  _321
REMARK  135  A    between atoms: _320  and  _323
REMARK  136  A    between atoms: _323  and  _324
REMARK  137  A    between atoms: _329  and  _330
REMARK  138  A    between atoms: _332  and  _334
REMARK  139  A    between atoms: _334  and  _335
REMARK  140  A    between atoms: _334  and  _337
REMARK  141  A    between atoms: _337  and  _338
REMARK  142  A    between atoms: _341  and  _343
REMARK  143  A    between atoms: _343  and  _344
REMARK  144  A    between atoms: _343  and  _346
REMARK  145  A    between atoms: _346  and  _347
REMARK  146  A    between atoms: _350  and  _352
REMARK  147  A    between atoms: _352  and  _353
REMARK  148  A    between atoms: _352  and  _355
REMARK  149  A    between atoms: _355  and  _356
REMARK  150  A    between atoms: _356  and  _357
REMARK  151  A    between atoms: _357  and  _358
REMARK  152  A    between atoms: _367  and  _369
REMARK  153  A    between atoms: _369  and  _370
REMARK  154  A    between atoms: _369  and  _372
REMARK  155  A    between atoms: _372  and  _373
REMARK  156  A    between atoms: _377  and  _378
REMARK  157  A    between atoms: _383  and  _385
REMARK  158  A    between atoms: _385  and  _386
REMARK  159  A    between atoms: _385  and  _388
REMARK  160  A    between atoms: _388  and  _389
REMARK  161  A    between atoms: _389  and  _390
REMARK  162  A    between atoms: _390  and  _391
REMARK  163  A    between atoms: _400  and  _402
REMARK  164  A    between atoms: _402  and  _403
REMARK  165  A    between atoms: _402  and  _405
REMARK  166  A    between atoms: _405  and  _406
REMARK  167  A    between atoms: _406  and  _407
REMARK  168  A    between atoms: _410  and  _412
REMARK  169  A    between atoms: _412  and  _413
REMARK  170  A    between atoms: _412  and  _415
REMARK  171  A    between atoms: _415  and  _416
REMARK  172  A    between atoms: _419  and  _421
REMARK  173  A    between atoms: _421  and  _422
REMARK  174  A    between atoms: _421  and  _424
REMARK  175  A    between atoms: _424  and  _425
REMARK  176  A    between atoms: _430  and  _432
REMARK  177  A    between atoms: _432  and  _433
REMARK  178  A    between atoms: _432  and  _435
REMARK  179  A    between atoms: _435  and  _436
REMARK  180  A    between atoms: _438  and  _440
REMARK  181  A    between atoms: _440  and  _441
REMARK  182  A    between atoms: _440  and  _443
REMARK  183  A    between atoms: _443  and  _444
REMARK  184  A    between atoms: _454  and  _456
REMARK  185  A    between atoms: _456  and  _457
REMARK  186  A    between atoms: _456  and  _459
REMARK  187  A    between atoms: _459  and  _460
REMARK  188  A    between atoms: _463  and  _465
REMARK  189  A    between atoms: _465  and  _466
REMARK  190  A    between atoms: _468  and  _470
REMARK  191  A    between atoms: _470  and  _471
REMARK  192  A    between atoms: _470  and  _473
REMARK  193  A    between atoms: _473  and  _474
REMARK  194  A    between atoms: _479  and  _481
REMARK  195  A    between atoms: _481  and  _482
REMARK  196  A    between atoms: _481  and  _484
REMARK  197  A    between atoms: _484  and  _485
REMARK  198  A    between atoms: _488  and  _490
REMARK  199  A    between atoms: _490  and  _491
REMARK  200  A    between atoms: _490  and  _493
REMARK  201  A    between atoms: _493  and  _494
REMARK  202  A    between atoms: _497  and  _499
REMARK  203  A    between atoms: _499  and  _500
REMARK  204  A    between atoms: _499  and  _502
REMARK  205  A    between atoms: _502  and  _503
REMARK  206  A    between atoms: _503  and  _504
REMARK  207  A    between atoms: _506  and  _508
REMARK  208  A    between atoms: _508  and  _509
REMARK  209  A    between atoms: _508  and  _511
REMARK  210  A    between atoms: _511  and  _512
REMARK  211  A    between atoms: _517  and  _518
REMARK  212  A    between atoms: _520  and  _522
REMARK  213  A    between atoms: _522  and  _523
REMARK  214  A    between atoms: _527  and  _528
REMARK  215  A    between atoms: _533  and  _535
REMARK  216  A    between atoms: _535  and  _536
REMARK  217  A    between atoms: _535  and  _538
REMARK  218  A    between atoms: _538  and  _539
REMARK  219  A    between atoms: _542  and  _544
REMARK  220  A    between atoms: _544  and  _545
REMARK  221  A    between atoms: _544  and  _547
REMARK  222  A    between atoms: _547  and  _548
REMARK  223  A    between atoms: _558  and  _560
REMARK  224  A    between atoms: _560  and  _561
REMARK  225  A    between atoms: _560  and  _563
REMARK  226  A    between atoms: _563  and  _564
REMARK  227  A    between atoms: _567  and  _569
REMARK  228  A    between atoms: _569  and  _570
REMARK  229  A    between atoms: _569  and  _572
REMARK  230  A    between atoms: _574  and  _576
REMARK  231  A    between atoms: _576  and  _577
REMARK  232  A    between atoms: _576  and  _579
REMARK  233  A    between atoms: _579  and  _580
REMARK  234  A    between atoms: _580  and  _581
REMARK  235  A    between atoms: _586  and  _588
REMARK  236  A    between atoms: _588  and  _589
REMARK  237  A    between atoms: _588  and  _591
REMARK  238  A    between atoms: _591  and  _592
REMARK  239  A    between atoms: _595  and  _597
REMARK  240  A    between atoms: _597  and  _598
REMARK  241  A    between atoms: _597  and  _600
REMARK  242  A    between atoms: _600  and  _601
REMARK  243  A    between atoms: _606  and  _607
REMARK  244  A    between atoms: _609  and  _611
REMARK  245  A    between atoms: _611  and  _612
REMARK  246  A    between atoms: _614  and  _616
REMARK  247  A    between atoms: _616  and  _617
REMARK  248  A    between atoms: _620  and  _622
REMARK  249  A    between atoms: _622  and  _623
REMARK  250  A    between atoms: _622  and  _625
REMARK  251  A    between atoms: _627  and  _629
REMARK  252  A    between atoms: _629  and  _630
REMARK  253  A    between atoms: _629  and  _632
REMARK  254  A    between atoms: _632  and  _633
REMARK  255  A    between atoms: _638  and  _639
REMARK  256  A    between atoms: _641  and  _643
REMARK  257  A    between atoms: _643  and  _644
REMARK  258  A    between atoms: _643  and  _646
REMARK  259  A    between atoms: _646  and  _647
REMARK  260  A    between atoms: _650  and  _652
REMARK  261  A    between atoms: _652  and  _653
REMARK  262  A    between atoms: _652  and  _655
REMARK  263  A    between atoms: _655  and  _656
REMARK  264  A    between atoms: _661  and  _663
REMARK  265  A    between atoms: _663  and  _664
REMARK  266  A    between atoms: _663  and  _666
REMARK  267  A    between atoms: _666  and  _667
REMARK  268  A    between atoms: _673  and  _675
REMARK  269  A    between atoms: _675  and  _676
REMARK  270  A    between atoms: _679  and  _681
REMARK  271  A    between atoms: _681  and  _682
REMARK  272  A    between atoms: _684  and  _686
REMARK  273  A    between atoms: _686  and  _687
REMARK  274  A    between atoms: _686  and  _689
REMARK  275  A    between atoms: _689  and  _690
REMARK  276  A    between atoms: _695  and  _696
REMARK  277  A    between atoms: _698  and  _700
REMARK  278  A    between atoms: _700  and  _701
REMARK  279  A    between atoms: _700  and  _703
REMARK  280  A    between atoms: _703  and  _704
REMARK  281  A    between atoms: _706  and  _708
REMARK  282  A    between atoms: _708  and  _709
REMARK  283  A    between atoms: _711  and  _713
REMARK  284  A    between atoms: _713  and  _714
REMARK                            x       y       z     vdW  Elec       q    Type
REMARK                         _______ _______ _______ _____ _____    ______ ____
ROOT
ATOM      1  O   HOH     1      30.063   6.084  47.444  0.00  0.00    +0.000 OA
ENDROOT
TORSDOF 0
REMARK  Name = ../refined-set-2016/3gnw/3gnw_pocket.pdb
REMARK  284 active torsions:
REMARK  status: ('A' for Active; 'I' for Inactive)
REMARK    1  A    between atoms: _1  and  _3
REMARK    2  A    between atoms: _3  and  _4
REMARK    3  A    between atoms: _3  and  _6
REMARK    4  A    between atoms: _6  and  _7
REMARK    5  A    between atoms: _7  and  _8
REMARK    6  A    between atoms: _8  and  _9
REMARK    7  A    between atoms: _9  and  _10
REMARK    8  A    between atoms: _14  and  _16
REMARK    9  A    between atoms: _16  and  _17
REMARK   10  A    between atoms: _16  and  _19
REMARK   11  A    between atoms: _19  and  _20
REMARK   12  A    between atoms: _20  and  _21
REMARK   13  A    between atoms: _24  and  _26
REMARK   14  A    between atoms: _26  and  _27
REMARK   15  A    between atoms: _26  and  _29
REMARK   16  A    between atoms: _29  and  _30
REMARK   17  A    between atoms: _36  and  _38
REMARK   18  A    between atoms: _38  and  _39
REMARK   19  A    between atoms: _38  and  _41
REMARK   20  A    between atoms: _41  and  _42
REMARK   21  A    between atoms: _42  and  _43
REMARK   22  A    between atoms: _43  and  _44
REMARK   23  A    between atoms: _53  and  _55
REMARK   24  A    between atoms: _55  and  _56
REMARK   25  A    between atoms: _55  and  _58
REMARK   26  A    between atoms: _58  and  _59
REMARK   27  A    between atoms: _62  and  _64
REMARK   28  A    between atoms: _64  and  _65
REMARK   29  A    between atoms: _67  and  _69
REMARK   30  A    between atoms: _69  and  _70
REMARK   31  A    between atoms: _69  and  _72
REMARK   32  A    between atoms: _72  and  _73
REMARK   33  A    between atoms: _79  and  _81
REMARK   34  A    between atoms: _81  and  _82
REMARK   35  A    between atoms: _81  and  _84
REMARK   36  A    between atoms: _84  and  _85
REMARK   37  A    between atoms: _90  and  _91
REMARK   38  A    between atoms: _93  and  _95
REMARK   39  A    between atoms: _95  and  _96
REMARK   40  A    between atoms: _95  and  _98
REMARK   41  A    between atoms: _98  and  _99
REMARK   42  A    between atoms: _102  and  _103
REMARK   43  A    between atoms: _108  and  _110
REMARK   44  A    between atoms: _110  and  _111
REMARK   45  A    between atoms: _110  and  _113
REMARK   46  A    between atoms: _113  and  _114
REMARK   47  A    between atoms: _114  and  _115
REMARK   48  A    between atoms: _115  and  _116
REMARK   49  A    between atoms: _116  and  _117
REMARK   50  A    between atoms: _121  and  _123
REMARK   51  A    between atoms: _123  and  _124
REMARK   52  A    between atoms: _123  and  _126
REMARK   53  A    between atoms: _126  and  _127
REMARK   54  A    between atoms: _127  and  _128
REMARK   55  A    between atoms: _133  and  _135
REMARK   56  A    between atoms: _135  and  _136
REMARK   57  A    between atoms: _135  and  _138
REMARK   58  A    between atoms: _138  and  _139
REMARK   59  A    between atoms: _139  and  _140
REMARK   60  A    between atoms: _140  and  _141
REMARK   61  A    between atoms: _150  and  _152
REMARK   62  A    between atoms: _152  and  _153
REMARK   63  A    between atoms: _152  and  _155
REMARK   64  A    between atoms: _158  and  _160
REMARK   65  A    between atoms: _160  and  _161
REMARK   66  A    between atoms: _160  and  _163
REMARK   67  A    between atoms: _163  and  _164
REMARK   68  A    between atoms: _167  and  _169
REMARK   69  A    between atoms: _169  and  _170
REMARK   70  A    between atoms: _169  and  _172
REMARK   71  A    between atoms: _172  and  _173
REMARK   72  A    between atoms: _179  and  _181
REMARK   73  A    between atoms: _181  and  _182
REMARK   74  A    between atoms: _181  and  _184
REMARK   75  A    between atoms: _184  and  _185
REMARK   76  A    between atoms: _188  and  _190
REMARK   77  A    between atoms: _190  and  _191
REMARK   78  A    between atoms: _190  and  _193
REMARK   79  A    between atoms: _193  and  _194
REMARK   80  A    between atoms: _196  and  _198
REMARK   81  A    between atoms: _198  and  _199
REMARK   82  A    between atoms: _198  and  _201
REMARK   83  A    between atoms: _201  and  _202
REMARK   84  A    between atoms: _205  and  _207
REMARK   85  A    between atoms: _207  and  _208
REMARK   86  A    between atoms: _207  and  _210
REMARK   87  A    between atoms: _210  and  _211
REMARK   88  A    between atoms: _213  and  _215
REMARK   89  A    between atoms: _215  and  _216
REMARK   90  A    between atoms: _215  and  _218
REMARK   91  A    between atoms: _218  and  _219
REMARK   92  A    between atoms: _224  and  _226
REMARK   93  A    between atoms: _226  and  _227
REMARK   94  A    between atoms: _226  and  _229
REMARK   95  A    between atoms: _229  and  _230
REMARK   96  A    between atoms: _233  and  _235
REMARK   97  A    between atoms: _235  and  _236
REMARK   98  A    between atoms: _235  and  _238
REMARK   99  A    between atoms: _238  and  _239
REMARK  100  A    between atoms: _244  and  _246
REMARK  101  A    between atoms: _246  and  _247
REMARK  102  A    between atoms: _249  and  _251
REMARK  103  A    between atoms: _251  and  _252
REMARK  104  A    between atoms: _251  and  _254
REMARK  105  A    between atoms: _254  and  _255
REMARK  106  A    between atoms: _258  and  _260
REMARK  107  A    between atoms: _260  and  _261
REMARK  108  A    between atoms: _260  and  _263
REMARK  109  A    between atoms: _263  and  _264
REMARK  110  A    between atoms: _267  and  _269
REMARK  111  A    between atoms: _269  and  _270
REMARK  112  A    between atoms: _269  and  _272
REMARK  113  A    between atoms: _272  and  _273
REMARK  114  A    between atoms: _276  and  _278
REMARK  115  A    between atoms: _278  and  _279
REMARK  116  A    between atoms: _278  and  _281
REMARK  117  A    between atoms: _281  and  _282
REMARK  118  A    between atoms: _284  and  _286
REMARK  119  A    between atoms: _286  and  _287
REMARK  120  A    between atoms: _286  and  _289
REMARK  121  A    between atoms: _291  and  _293
REMARK  122  A    between atoms: _293  and  _294
REMARK  123  A    between atoms: _293  and  _296
REMARK  124  A    between atoms: _296  and  _297
REMARK  125  A    between atoms: _299  and  _301
REMARK  126  A    between atoms: _301  and  _302
REMARK  127  A    between atoms: _301  and  _304
REMARK  128  A    between atoms: _304  and  _305
REMARK  129  A    between atoms: _307  and  _309
REMARK  130  A    between atoms: _309  and  _310
REMARK  131  A    between atoms: _309  and  _312
REMARK  132  A    between atoms: _312  and  _313
REMARK  133  A    between atoms: _318  and  _320
REMARK  134  A    between atoms: _320  and  _321
REMARK  135  A    between atoms: _320  and  _323
REMARK  136  A    between atoms: _323  and  _324
REMARK  137  A    between atoms: _329  and  _330
REMARK  138  A    between atoms: _332  and  _334
REMARK  139  A    between atoms: _334  and  _335
REMARK  140  A    between atoms: _334  and  _337
REMARK  141  A    between atoms: _337  and  _338
REMARK  142  A    between atoms: _341  and  _343
REMARK  143  A    between atoms: _343  and  _344
REMARK  144  A    between atoms: _343  and  _346
REMARK  145  A    between atoms: _346  and  _347
REMARK  146  A    between atoms: _350  and  _352
REMARK  147  A    between atoms: _352  and  _353
REMARK  148  A    between atoms: _352  and  _355
REMARK  149  A    between atoms: _355  and  _356
REMARK  150  A    between atoms: _356  and  _357
REMARK  151  A    between atoms: _357  and  _358
REMARK  152  A    between atoms: _367  and  _369
REMARK  153  A    between atoms: _369  and  _370
REMARK  154  A    between atoms: _369  and  _372
REMARK  155  A    between atoms: _372  and  _373
REMARK  156  A    between atoms: _377  and  _378
REMARK  157  A    between atoms: _383  and  _385
REMARK  158  A    between atoms: _385  and  _386
REMARK  159  A    between atoms: _385  and  _388
REMARK  160  A    between atoms: _388  and  _389
REMARK  161  A    between atoms: _389  and  _390
REMARK  162  A    between atoms: _390  and  _391
REMARK  163  A    between atoms: _400  and  _402
REMARK  164  A    between atoms: _402  and  _403
REMARK  165  A    between atoms: _402  and  _405
REMARK  166  A    between atoms: _405  and  _406
REMARK  167  A    between atoms: _406  and  _407
REMARK  168  A    between atoms: _410  and  _412
REMARK  169  A    between atoms: _412  and  _413
REMARK  170  A    between atoms: _412  and  _415
REMARK  171  A    between atoms: _415  and  _416
REMARK  172  A    between atoms: _419  and  _421
REMARK  173  A    between atoms: _421  and  _422
REMARK  174  A    between atoms: _421  and  _424
REMARK  175  A    between atoms: _424  and  _425
REMARK  176  A    between atoms: _430  and  _432
REMARK  177  A    between atoms: _432  and  _433
REMARK  178  A    between atoms: _432  and  _435
REMARK  179  A    between atoms: _435  and  _436
REMARK  180  A    between atoms: _438  and  _440
REMARK  181  A    between atoms: _440  and  _441
REMARK  182  A    between atoms: _440  and  _443
REMARK  183  A    between atoms: _443  and  _444
REMARK  184  A    between atoms: _454  and  _456
REMARK  185  A    between atoms: _456  and  _457
REMARK  186  A    between atoms: _456  and  _459
REMARK  187  A    between atoms: _459  and  _460
REMARK  188  A    between atoms: _463  and  _465
REMARK  189  A    between atoms: _465  and  _466
REMARK  190  A    between atoms: _468  and  _470
REMARK  191  A    between atoms: _470  and  _471
REMARK  192  A    between atoms: _470  and  _473
REMARK  193  A    between atoms: _473  and  _474
REMARK  194  A    between atoms: _479  and  _481
REMARK  195  A    between atoms: _481  and  _482
REMARK  196  A    between atoms: _481  and  _484
REMARK  197  A    between atoms: _484  and  _485
REMARK  198  A    between atoms: _488  and  _490
REMARK  199  A    between atoms: _490  and  _491
REMARK  200  A    between atoms: _490  and  _493
REMARK  201  A    between atoms: _493  and  _494
REMARK  202  A    between atoms: _497  and  _499
REMARK  203  A    between atoms: _499  and  _500
REMARK  204  A    between atoms: _499  and  _502
REMARK  205  A    between atoms: _502  and  _503
REMARK  206  A    between atoms: _503  and  _504
REMARK  207  A    between atoms: _506  and  _508
REMARK  208  A    between atoms: _508  and  _509
REMARK  209  A    between atoms: _508  and  _511
REMARK  210  A    between atoms: _511  and  _512
REMARK  211  A    between atoms: _517  and  _518
REMARK  212  A    between atoms: _520  and  _522
REMARK  213  A    between atoms: _522  and  _523
REMARK  214  A    between atoms: _527  and  _528
REMARK  215  A    between atoms: _533  and  _535
REMARK  216  A    between atoms: _535  and  _536
REMARK  217  A    between atoms: _535  and  _538
REMARK  218  A    between atoms: _538  and  _539
REMARK  219  A    between atoms: _542  and  _544
REMARK  220  A    between atoms: _544  and  _545
REMARK  221  A    between atoms: _544  and  _547
REMARK  222  A    between atoms: _547  and  _548
REMARK  223  A    between atoms: _558  and  _560
REMARK  224  A    between atoms: _560  and  _561
REMARK  225  A    between atoms: _560  and  _563
REMARK  226  A    between atoms: _563  and  _564
REMARK  227  A    between atoms: _567  and  _569
REMARK  228  A    between atoms: _569  and  _570
REMARK  229  A    between atoms: _569  and  _572
REMARK  230  A    between atoms: _574  and  _576
REMARK  231  A    between atoms: _576  and  _577
REMARK  232  A    between atoms: _576  and  _579
REMARK  233  A    between atoms: _579  and  _580
REMARK  234  A    between atoms: _580  and  _581
REMARK  235  A    between atoms: _586  and  _588
REMARK  236  A    between atoms: _588  and  _589
REMARK  237  A    between atoms: _588  and  _591
REMARK  238  A    between atoms: _591  and  _592
REMARK  239  A    between atoms: _595  and  _597
REMARK  240  A    between atoms: _597  and  _598
REMARK  241  A    between atoms: _597  and  _600
REMARK  242  A    between atoms: _600  and  _601
REMARK  243  A    between atoms: _606  and  _607
REMARK  244  A    between atoms: _609  and  _611
REMARK  245  A    between atoms: _611  and  _612
REMARK  246  A    between atoms: _614  and  _616
REMARK  247  A    between atoms: _616  and  _617
REMARK  248  A    between atoms: _620  and  _622
REMARK  249  A    between atoms: _622  and  _623
REMARK  250  A    between atoms: _622  and  _625
REMARK  251  A    between atoms: _627  and  _629
REMARK  252  A    between atoms: _629  and  _630
REMARK  253  A    between atoms: _629  and  _632
REMARK  254  A    between atoms: _632  and  _633
REMARK  255  A    between atoms: _638  and  _639
REMARK  256  A    between atoms: _641  and  _643
REMARK  257  A    between atoms: _643  and  _644
REMARK  258  A    between atoms: _643  and  _646
REMARK  259  A    between atoms: _646  and  _647
REMARK  260  A    between atoms: _650  and  _652
REMARK  261  A    between atoms: _652  and  _653
REMARK  262  A    between atoms: _652  and  _655
REMARK  263  A    between atoms: _655  and  _656
REMARK  264  A    between atoms: _661  and  _663
REMARK  265  A    between atoms: _663  and  _664
REMARK  266  A    between atoms: _663  and  _666
REMARK  267  A    between atoms: _666  and  _667
REMARK  268  A    between atoms: _673  and  _675
REMARK  269  A    between atoms: _675  and  _676
REMARK  270  A    between atoms: _679  and  _681
REMARK  271  A    between atoms: _681  and  _682
REMARK  272  A    between atoms: _684  and  _686
REMARK  273  A    between atoms: _686  and  _687
REMARK  274  A    between atoms: _686  and  _689
REMARK  275  A    between atoms: _689  and  _690
REMARK  276  A    between atoms: _695  and  _696
REMARK  277  A    between atoms: _698  and  _700
REMARK  278  A    between atoms: _700  and  _701
REMARK  279  A    between atoms: _700  and  _703
REMARK  280  A    between atoms: _703  and  _704
REMARK  281  A    between atoms: _706  and  _708
REMARK  282  A    between atoms: _708  and  _709
REMARK  283  A    between atoms: _711  and  _713
REMARK  284  A    between atoms: _713  and  _714
REMARK                            x       y       z     vdW  Elec       q    Type
REMARK                         _______ _______ _______ _____ _____    ______ ____
ROOT
ATOM      1  O   HOH     1      22.082   0.895  35.836  0.00  0.00    +0.000 OA
ENDROOT
TORSDOF 0
REMARK  Name = ../refined-set-2016/3gnw/3gnw_pocket.pdb
REMARK  284 active torsions:
REMARK  status: ('A' for Active; 'I' for Inactive)
REMARK    1  A    between atoms: _1  and  _3
REMARK    2  A    between atoms: _3  and  _4
REMARK    3  A    between atoms: _3  and  _6
REMARK    4  A    between atoms: _6  and  _7
REMARK    5  A    between atoms: _7  and  _8
REMARK    6  A    between atoms: _8  and  _9
REMARK    7  A    between atoms: _9  and  _10
REMARK    8  A    between atoms: _14  and  _16
REMARK    9  A    between atoms: _16  and  _17
REMARK   10  A    between atoms: _16  and  _19
REMARK   11  A    between atoms: _19  and  _20
REMARK   12  A    between atoms: _20  and  _21
REMARK   13  A    between atoms: _24  and  _26
REMARK   14  A    between atoms: _26  and  _27
REMARK   15  A    between atoms: _26  and  _29
REMARK   16  A    between atoms: _29  and  _30
REMARK   17  A    between atoms: _36  and  _38
REMARK   18  A    between atoms: _38  and  _39
REMARK   19  A    between atoms: _38  and  _41
REMARK   20  A    between atoms: _41  and  _42
REMARK   21  A    between atoms: _42  and  _43
REMARK   22  A    between atoms: _43  and  _44
REMARK   23  A    between atoms: _53  and  _55
REMARK   24  A    between atoms: _55  and  _56
REMARK   25  A    between atoms: _55  and  _58
REMARK   26  A    between atoms: _58  and  _59
REMARK   27  A    between atoms: _62  and  _64
REMARK   28  A    between atoms: _64  and  _65
REMARK   29  A    between atoms: _67  and  _69
REMARK   30  A    between atoms: _69  and  _70
REMARK   31  A    between atoms: _69  and  _72
REMARK   32  A    between atoms: _72  and  _73
REMARK   33  A    between atoms: _79  and  _81
REMARK   34  A    between atoms: _81  and  _82
REMARK   35  A    between atoms: _81  and  _84
REMARK   36  A    between atoms: _84  and  _85
REMARK   37  A    between atoms: _90  and  _91
REMARK   38  A    between atoms: _93  and  _95
REMARK   39  A    between atoms: _95  and  _96
REMARK   40  A    between atoms: _95  and  _98
REMARK   41  A    between atoms: _98  and  _99
REMARK   42  A    between atoms: _102  and  _103
REMARK   43  A    between atoms: _108  and  _110
REMARK   44  A    between atoms: _110  and  _111
REMARK   45  A    between atoms: _110  and  _113
REMARK   46  A    between atoms: _113  and  _114
REMARK   47  A    between atoms: _114  and  _115
REMARK   48  A    between atoms: _115  and  _116
REMARK   49  A    between atoms: _116  and  _117
REMARK   50  A    between atoms: _121  and  _123
REMARK   51  A    between atoms: _123  and  _124
REMARK   52  A    between atoms: _123  and  _126
REMARK   53  A    between atoms: _126  and  _127
REMARK   54  A    between atoms: _127  and  _128
REMARK   55  A    between atoms: _133  and  _135
REMARK   56  A    between atoms: _135  and  _136
REMARK   57  A    between atoms: _135  and  _138
REMARK   58  A    between atoms: _138  and  _139
REMARK   59  A    between atoms: _139  and  _140
REMARK   60  A    between atoms: _140  and  _141
REMARK   61  A    between atoms: _150  and  _152
REMARK   62  A    between atoms: _152  and  _153
REMARK   63  A    between atoms: _152  and  _155
REMARK   64  A    between atoms: _158  and  _160
REMARK   65  A    between atoms: _160  and  _161
REMARK   66  A    between atoms: _160  and  _163
REMARK   67  A    between atoms: _163  and  _164
REMARK   68  A    between atoms: _167  and  _169
REMARK   69  A    between atoms: _169  and  _170
REMARK   70  A    between atoms: _169  and  _172
REMARK   71  A    between atoms: _172  and  _173
REMARK   72  A    between atoms: _179  and  _181
REMARK   73  A    between atoms: _181  and  _182
REMARK   74  A    between atoms: _181  and  _184
REMARK   75  A    between atoms: _184  and  _185
REMARK   76  A    between atoms: _188  and  _190
REMARK   77  A    between atoms: _190  and  _191
REMARK   78  A    between atoms: _190  and  _193
REMARK   79  A    between atoms: _193  and  _194
REMARK   80  A    between atoms: _196  and  _198
REMARK   81  A    between atoms: _198  and  _199
REMARK   82  A    between atoms: _198  and  _201
REMARK   83  A    between atoms: _201  and  _202
REMARK   84  A    between atoms: _205  and  _207
REMARK   85  A    between atoms: _207  and  _208
REMARK   86  A    between atoms: _207  and  _210
REMARK   87  A    between atoms: _210  and  _211
REMARK   88  A    between atoms: _213  and  _215
REMARK   89  A    between atoms: _215  and  _216
REMARK   90  A    between atoms: _215  and  _218
REMARK   91  A    between atoms: _218  and  _219
REMARK   92  A    between atoms: _224  and  _226
REMARK   93  A    between atoms: _226  and  _227
REMARK   94  A    between atoms: _226  and  _229
REMARK   95  A    between atoms: _229  and  _230
REMARK   96  A    between atoms: _233  and  _235
REMARK   97  A    between atoms: _235  and  _236
REMARK   98  A    between atoms: _235  and  _238
REMARK   99  A    between atoms: _238  and  _239
REMARK  100  A    between atoms: _244  and  _246
REMARK  101  A    between atoms: _246  and  _247
REMARK  102  A    between atoms: _249  and  _251
REMARK  103  A    between atoms: _251  and  _252
REMARK  104  A    between atoms: _251  and  _254
REMARK  105  A    between atoms: _254  and  _255
REMARK  106  A    between atoms: _258  and  _260
REMARK  107  A    between atoms: _260  and  _261
REMARK  108  A    between atoms: _260  and  _263
REMARK  109  A    between atoms: _263  and  _264
REMARK  110  A    between atoms: _267  and  _269
REMARK  111  A    between atoms: _269  and  _270
REMARK  112  A    between atoms: _269  and  _272
REMARK  113  A    between atoms: _272  and  _273
REMARK  114  A    between atoms: _276  and  _278
REMARK  115  A    between atoms: _278  and  _279
REMARK  116  A    between atoms: _278  and  _281
REMARK  117  A    between atoms: _281  and  _282
REMARK  118  A    between atoms: _284  and  _286
REMARK  119  A    between atoms: _286  and  _287
REMARK  120  A    between atoms: _286  and  _289
REMARK  121  A    between atoms: _291  and  _293
REMARK  122  A    between atoms: _293  and  _294
REMARK  123  A    between atoms: _293  and  _296
REMARK  124  A    between atoms: _296  and  _297
REMARK  125  A    between atoms: _299  and  _301
REMARK  126  A    between atoms: _301  and  _302
REMARK  127  A    between atoms: _301  and  _304
REMARK  128  A    between atoms: _304  and  _305
REMARK  129  A    between atoms: _307  and  _309
REMARK  130  A    between atoms: _309  and  _310
REMARK  131  A    between atoms: _309  and  _312
REMARK  132  A    between atoms: _312  and  _313
REMARK  133  A    between atoms: _318  and  _320
REMARK  134  A    between atoms: _320  and  _321
REMARK  135  A    between atoms: _320  and  _323
REMARK  136  A    between atoms: _323  and  _324
REMARK  137  A    between atoms: _329  and  _330
REMARK  138  A    between atoms: _332  and  _334
REMARK  139  A    between atoms: _334  and  _335
REMARK  140  A    between atoms: _334  and  _337
REMARK  141  A    between atoms: _337  and  _338
REMARK  142  A    between atoms: _341  and  _343
REMARK  143  A    between atoms: _343  and  _344
REMARK  144  A    between atoms: _343  and  _346
REMARK  145  A    between atoms: _346  and  _347
REMARK  146  A    between atoms: _350  and  _352
REMARK  147  A    between atoms: _352  and  _353
REMARK  148  A    between atoms: _352  and  _355
REMARK  149  A    between atoms: _355  and  _356
REMARK  150  A    between atoms: _356  and  _357
REMARK  151  A    between atoms: _357  and  _358
REMARK  152  A    between atoms: _367  and  _369
REMARK  153  A    between atoms: _369  and  _370
REMARK  154  A    between atoms: _369  and  _372
REMARK  155  A    between atoms: _372  and  _373
REMARK  156  A    between atoms: _377  and  _378
REMARK  157  A    between atoms: _383  and  _385
REMARK  158  A    between atoms: _385  and  _386
REMARK  159  A    between atoms: _385  and  _388
REMARK  160  A    between atoms: _388  and  _389
REMARK  161  A    between atoms: _389  and  _390
REMARK  162  A    between atoms: _390  and  _391
REMARK  163  A    between atoms: _400  and  _402
REMARK  164  A    between atoms: _402  and  _403
REMARK  165  A    between atoms: _402  and  _405
REMARK  166  A    between atoms: _405  and  _406
REMARK  167  A    between atoms: _406  and  _407
REMARK  168  A    between atoms: _410  and  _412
REMARK  169  A    between atoms: _412  and  _413
REMARK  170  A    between atoms: _412  and  _415
REMARK  171  A    between atoms: _415  and  _416
REMARK  172  A    between atoms: _419  and  _421
REMARK  173  A    between atoms: _421  and  _422
REMARK  174  A    between atoms: _421  and  _424
REMARK  175  A    between atoms: _424  and  _425
REMARK  176  A    between atoms: _430  and  _432
REMARK  177  A    between atoms: _432  and  _433
REMARK  178  A    between atoms: _432  and  _435
REMARK  179  A    between atoms: _435  and  _436
REMARK  180  A    between atoms: _438  and  _440
REMARK  181  A    between atoms: _440  and  _441
REMARK  182  A    between atoms: _440  and  _443
REMARK  183  A    between atoms: _443  and  _444
REMARK  184  A    between atoms: _454  and  _456
REMARK  185  A    between atoms: _456  and  _457
REMARK  186  A    between atoms: _456  and  _459
REMARK  187  A    between atoms: _459  and  _460
REMARK  188  A    between atoms: _463  and  _465
REMARK  189  A    between atoms: _465  and  _466
REMARK  190  A    between atoms: _468  and  _470
REMARK  191  A    between atoms: _470  and  _471
REMARK  192  A    between atoms: _470  and  _473
REMARK  193  A    between atoms: _473  and  _474
REMARK  194  A    between atoms: _479  and  _481
REMARK  195  A    between atoms: _481  and  _482
REMARK  196  A    between atoms: _481  and  _484
REMARK  197  A    between atoms: _484  and  _485
REMARK  198  A    between atoms: _488  and  _490
REMARK  199  A    between atoms: _490  and  _491
REMARK  200  A    between atoms: _490  and  _493
REMARK  201  A    between atoms: _493  and  _494
REMARK  202  A    between atoms: _497  and  _499
REMARK  203  A    between atoms: _499  and  _500
REMARK  204  A    between atoms: _499  and  _502
REMARK  205  A    between atoms: _502  and  _503
REMARK  206  A    between atoms: _503  and  _504
REMARK  207  A    between atoms: _506  and  _508
REMARK  208  A    between atoms: _508  and  _509
REMARK  209  A    between atoms: _508  and  _511
REMARK  210  A    between atoms: _511  and  _512
REMARK  211  A    between atoms: _517  and  _518
REMARK  212  A    between atoms: _520  and  _522
REMARK  213  A    between atoms: _522  and  _523
REMARK  214  A    between atoms: _527  and  _528
REMARK  215  A    between atoms: _533  and  _535
REMARK  216  A    between atoms: _535  and  _536
REMARK  217  A    between atoms: _535  and  _538
REMARK  218  A    between atoms: _538  and  _539
REMARK  219  A    between atoms: _542  and  _544
REMARK  220  A    between atoms: _544  and  _545
REMARK  221  A    between atoms: _544  and  _547
REMARK  222  A    between atoms: _547  and  _548
REMARK  223  A    between atoms: _558  and  _560
REMARK  224  A    between atoms: _560  and  _561
REMARK  225  A    between atoms: _560  and  _563
REMARK  226  A    between atoms: _563  and  _564
REMARK  227  A    between atoms: _567  and  _569
REMARK  228  A    between atoms: _569  and  _570
REMARK  229  A    between atoms: _569  and  _572
REMARK  230  A    between atoms: _574  and  _576
REMARK  231  A    between atoms: _576  and  _577
REMARK  232  A    between atoms: _576  and  _579
REMARK  233  A    between atoms: _579  and  _580
REMARK  234  A    between atoms: _580  and  _581
REMARK  235  A    between atoms: _586  and  _588
REMARK  236  A    between atoms: _588  and  _589
REMARK  237  A    between atoms: _588  and  _591
REMARK  238  A    between atoms: _591  and  _592
REMARK  239  A    between atoms: _595  and  _597
REMARK  240  A    between atoms: _597  and  _598
REMARK  241  A    between atoms: _597  and  _600
REMARK  242  A    between atoms: _600  and  _601
REMARK  243  A    between atoms: _606  and  _607
REMARK  244  A    between atoms: _609  and  _611
REMARK  245  A    between atoms: _611  and  _612
REMARK  246  A    between atoms: _614  and  _616
REMARK  247  A    between atoms: _616  and  _617
REMARK  248  A    between atoms: _620  and  _622
REMARK  249  A    between atoms: _622  and  _623
REMARK  250  A    between atoms: _622  and  _625
REMARK  251  A    between atoms: _627  and  _629
REMARK  252  A    between atoms: _629  and  _630
REMARK  253  A    between atoms: _629  and  _632
REMARK  254  A    between atoms: _632  and  _633
REMARK  255  A    between atoms: _638  and  _639
REMARK  256  A    between atoms: _641  and  _643
REMARK  257  A    between atoms: _643  and  _644
REMARK  258  A    between atoms: _643  and  _646
REMARK  259  A    between atoms: _646  and  _647
REMARK  260  A    between atoms: _650  and  _652
REMARK  261  A    between atoms: _652  and  _653
REMARK  262  A    between atoms: _652  and  _655
REMARK  263  A    between atoms: _655  and  _656
REMARK  264  A    between atoms: _661  and  _663
REMARK  265  A    between atoms: _663  and  _664
REMARK  266  A    between atoms: _663  and  _666
REMARK  267  A    between atoms: _666  and  _667
REMARK  268  A    between atoms: _673  and  _675
REMARK  269  A    between atoms: _675  and  _676
REMARK  270  A    between atoms: _679  and  _681
REMARK  271  A    between atoms: _681  and  _682
REMARK  272  A    between atoms: _684  and  _686
REMARK  273  A    between atoms: _686  and  _687
REMARK  274  A    between atoms: _686  and  _689
REMARK  275  A    between atoms: _689  and  _690
REMARK  276  A    between atoms: _695  and  _696
REMARK  277  A    between atoms: _698  and  _700
REMARK  278  A    between atoms: _700  and  _701
REMARK  279  A    between atoms: _700  and  _703
REMARK  280  A    between atoms: _703  and  _704
REMARK  281  A    between atoms: _706  and  _708
REMARK  282  A    between atoms: _708  and  _709
REMARK  283  A    between atoms: _711  and  _713
REMARK  284  A    between atoms: _713  and  _714
REMARK                            x       y       z     vdW  Elec       q    Type
REMARK                         _______ _______ _______ _____ _____    ______ ____
ROOT
ATOM      1  O   HOH     1      23.754  13.531  24.829  0.00  0.00    +0.000 OA
ENDROOT
TORSDOF 0
REMARK  Name = ../refined-set-2016/3gnw/3gnw_pocket.pdb
REMARK  284 active torsions:
REMARK  status: ('A' for Active; 'I' for Inactive)
REMARK    1  A    between atoms: _1  and  _3
REMARK    2  A    between atoms: _3  and  _4
REMARK    3  A    between atoms: _3  and  _6
REMARK    4  A    between atoms: _6  and  _7
REMARK    5  A    between atoms: _7  and  _8
REMARK    6  A    between atoms: _8  and  _9
REMARK    7  A    between atoms: _9  and  _10
REMARK    8  A    between atoms: _14  and  _16
REMARK    9  A    between atoms: _16  and  _17
REMARK   10  A    between atoms: _16  and  _19
REMARK   11  A    between atoms: _19  and  _20
REMARK   12  A    between atoms: _20  and  _21
REMARK   13  A    between atoms: _24  and  _26
REMARK   14  A    between atoms: _26  and  _27
REMARK   15  A    between atoms: _26  and  _29
REMARK   16  A    between atoms: _29  and  _30
REMARK   17  A    between atoms: _36  and  _38
REMARK   18  A    between atoms: _38  and  _39
REMARK   19  A    between atoms: _38  and  _41
REMARK   20  A    between atoms: _41  and  _42
REMARK   21  A    between atoms: _42  and  _43
REMARK   22  A    between atoms: _43  and  _44
REMARK   23  A    between atoms: _53  and  _55
REMARK   24  A    between atoms: _55  and  _56
REMARK   25  A    between atoms: _55  and  _58
REMARK   26  A    between atoms: _58  and  _59
REMARK   27  A    between atoms: _62  and  _64
REMARK   28  A    between atoms: _64  and  _65
REMARK   29  A    between atoms: _67  and  _69
REMARK   30  A    between atoms: _69  and  _70
REMARK   31  A    between atoms: _69  and  _72
REMARK   32  A    between atoms: _72  and  _73
REMARK   33  A    between atoms: _79  and  _81
REMARK   34  A    between atoms: _81  and  _82
REMARK   35  A    between atoms: _81  and  _84
REMARK   36  A    between atoms: _84  and  _85
REMARK   37  A    between atoms: _90  and  _91
REMARK   38  A    between atoms: _93  and  _95
REMARK   39  A    between atoms: _95  and  _96
REMARK   40  A    between atoms: _95  and  _98
REMARK   41  A    between atoms: _98  and  _99
REMARK   42  A    between atoms: _102  and  _103
REMARK   43  A    between atoms: _108  and  _110
REMARK   44  A    between atoms: _110  and  _111
REMARK   45  A    between atoms: _110  and  _113
REMARK   46  A    between atoms: _113  and  _114
REMARK   47  A    between atoms: _114  and  _115
REMARK   48  A    between atoms: _115  and  _116
REMARK   49  A    between atoms: _116  and  _117
REMARK   50  A    between atoms: _121  and  _123
REMARK   51  A    between atoms: _123  and  _124
REMARK   52  A    between atoms: _123  and  _126
REMARK   53  A    between atoms: _126  and  _127
REMARK   54  A    between atoms: _127  and  _128
REMARK   55  A    between atoms: _133  and  _135
REMARK   56  A    between atoms: _135  and  _136
REMARK   57  A    between atoms: _135  and  _138
REMARK   58  A    between atoms: _138  and  _139
REMARK   59  A    between atoms: _139  and  _140
REMARK   60  A    between atoms: _140  and  _141
REMARK   61  A    between atoms: _150  and  _152
REMARK   62  A    between atoms: _152  and  _153
REMARK   63  A    between atoms: _152  and  _155
REMARK   64  A    between atoms: _158  and  _160
REMARK   65  A    between atoms: _160  and  _161
REMARK   66  A    between atoms: _160  and  _163
REMARK   67  A    between atoms: _163  and  _164
REMARK   68  A    between atoms: _167  and  _169
REMARK   69  A    between atoms: _169  and  _170
REMARK   70  A    between atoms: _169  and  _172
REMARK   71  A    between atoms: _172  and  _173
REMARK   72  A    between atoms: _179  and  _181
REMARK   73  A    between atoms: _181  and  _182
REMARK   74  A    between atoms: _181  and  _184
REMARK   75  A    between atoms: _184  and  _185
REMARK   76  A    between atoms: _188  and  _190
REMARK   77  A    between atoms: _190  and  _191
REMARK   78  A    between atoms: _190  and  _193
REMARK   79  A    between atoms: _193  and  _194
REMARK   80  A    between atoms: _196  and  _198
REMARK   81  A    between atoms: _198  and  _199
REMARK   82  A    between atoms: _198  and  _201
REMARK   83  A    between atoms: _201  and  _202
REMARK   84  A    between atoms: _205  and  _207
REMARK   85  A    between atoms: _207  and  _208
REMARK   86  A    between atoms: _207  and  _210
REMARK   87  A    between atoms: _210  and  _211
REMARK   88  A    between atoms: _213  and  _215
REMARK   89  A    between atoms: _215  and  _216
REMARK   90  A    between atoms: _215  and  _218
REMARK   91  A    between atoms: _218  and  _219
REMARK   92  A    between atoms: _224  and  _226
REMARK   93  A    between atoms: _226  and  _227
REMARK   94  A    between atoms: _226  and  _229
REMARK   95  A    between atoms: _229  and  _230
REMARK   96  A    between atoms: _233  and  _235
REMARK   97  A    between atoms: _235  and  _236
REMARK   98  A    between atoms: _235  and  _238
REMARK   99  A    between atoms: _238  and  _239
REMARK  100  A    between atoms: _244  and  _246
REMARK  101  A    between atoms: _246  and  _247
REMARK  102  A    between atoms: _249  and  _251
REMARK  103  A    between atoms: _251  and  _252
REMARK  104  A    between atoms: _251  and  _254
REMARK  105  A    between atoms: _254  and  _255
REMARK  106  A    between atoms: _258  and  _260
REMARK  107  A    between atoms: _260  and  _261
REMARK  108  A    between atoms: _260  and  _263
REMARK  109  A    between atoms: _263  and  _264
REMARK  110  A    between atoms: _267  and  _269
REMARK  111  A    between atoms: _269  and  _270
REMARK  112  A    between atoms: _269  and  _272
REMARK  113  A    between atoms: _272  and  _273
REMARK  114  A    between atoms: _276  and  _278
REMARK  115  A    between atoms: _278  and  _279
REMARK  116  A    between atoms: _278  and  _281
REMARK  117  A    between atoms: _281  and  _282
REMARK  118  A    between atoms: _284  and  _286
REMARK  119  A    between atoms: _286  and  _287
REMARK  120  A    between atoms: _286  and  _289
REMARK  121  A    between atoms: _291  and  _293
REMARK  122  A    between atoms: _293  and  _294
REMARK  123  A    between atoms: _293  and  _296
REMARK  124  A    between atoms: _296  and  _297
REMARK  125  A    between atoms: _299  and  _301
REMARK  126  A    between atoms: _301  and  _302
REMARK  127  A    between atoms: _301  and  _304
REMARK  128  A    between atoms: _304  and  _305
REMARK  129  A    between atoms: _307  and  _309
REMARK  130  A    between atoms: _309  and  _310
REMARK  131  A    between atoms: _309  and  _312
REMARK  132  A    between atoms: _312  and  _313
REMARK  133  A    between atoms: _318  and  _320
REMARK  134  A    between atoms: _320  and  _321
REMARK  135  A    between atoms: _320  and  _323
REMARK  136  A    between atoms: _323  and  _324
REMARK  137  A    between atoms: _329  and  _330
REMARK  138  A    between atoms: _332  and  _334
REMARK  139  A    between atoms: _334  and  _335
REMARK  140  A    between atoms: _334  and  _337
REMARK  141  A    between atoms: _337  and  _338
REMARK  142  A    between atoms: _341  and  _343
REMARK  143  A    between atoms: _343  and  _344
REMARK  144  A    between atoms: _343  and  _346
REMARK  145  A    between atoms: _346  and  _347
REMARK  146  A    between atoms: _350  and  _352
REMARK  147  A    between atoms: _352  and  _353
REMARK  148  A    between atoms: _352  and  _355
REMARK  149  A    between atoms: _355  and  _356
REMARK  150  A    between atoms: _356  and  _357
REMARK  151  A    between atoms: _357  and  _358
REMARK  152  A    between atoms: _367  and  _369
REMARK  153  A    between atoms: _369  and  _370
REMARK  154  A    between atoms: _369  and  _372
REMARK  155  A    between atoms: _372  and  _373
REMARK  156  A    between atoms: _377  and  _378
REMARK  157  A    between atoms: _383  and  _385
REMARK  158  A    between atoms: _385  and  _386
REMARK  159  A    between atoms: _385  and  _388
REMARK  160  A    between atoms: _388  and  _389
REMARK  161  A    between atoms: _389  and  _390
REMARK  162  A    between atoms: _390  and  _391
REMARK  163  A    between atoms: _400  and  _402
REMARK  164  A    between atoms: _402  and  _403
REMARK  165  A    between atoms: _402  and  _405
REMARK  166  A    between atoms: _405  and  _406
REMARK  167  A    between atoms: _406  and  _407
REMARK  168  A    between atoms: _410  and  _412
REMARK  169  A    between atoms: _412  and  _413
REMARK  170  A    between atoms: _412  and  _415
REMARK  171  A    between atoms: _415  and  _416
REMARK  172  A    between atoms: _419  and  _421
REMARK  173  A    between atoms: _421  and  _422
REMARK  174  A    between atoms: _421  and  _424
REMARK  175  A    between atoms: _424  and  _425
REMARK  176  A    between atoms: _430  and  _432
REMARK  177  A    between atoms: _432  and  _433
REMARK  178  A    between atoms: _432  and  _435
REMARK  179  A    between atoms: _435  and  _436
REMARK  180  A    between atoms: _438  and  _440
REMARK  181  A    between atoms: _440  and  _441
REMARK  182  A    between atoms: _440  and  _443
REMARK  183  A    between atoms: _443  and  _444
REMARK  184  A    between atoms: _454  and  _456
REMARK  185  A    between atoms: _456  and  _457
REMARK  186  A    between atoms: _456  and  _459
REMARK  187  A    between atoms: _459  and  _460
REMARK  188  A    between atoms: _463  and  _465
REMARK  189  A    between atoms: _465  and  _466
REMARK  190  A    between atoms: _468  and  _470
REMARK  191  A    between atoms: _470  and  _471
REMARK  192  A    between atoms: _470  and  _473
REMARK  193  A    between atoms: _473  and  _474
REMARK  194  A    between atoms: _479  and  _481
REMARK  195  A    between atoms: _481  and  _482
REMARK  196  A    between atoms: _481  and  _484
REMARK  197  A    between atoms: _484  and  _485
REMARK  198  A    between atoms: _488  and  _490
REMARK  199  A    between atoms: _490  and  _491
REMARK  200  A    between atoms: _490  and  _493
REMARK  201  A    between atoms: _493  and  _494
REMARK  202  A    between atoms: _497  and  _499
REMARK  203  A    between atoms: _499  and  _500
REMARK  204  A    between atoms: _499  and  _502
REMARK  205  A    between atoms: _502  and  _503
REMARK  206  A    between atoms: _503  and  _504
REMARK  207  A    between atoms: _506  and  _508
REMARK  208  A    between atoms: _508  and  _509
REMARK  209  A    between atoms: _508  and  _511
REMARK  210  A    between atoms: _511  and  _512
REMARK  211  A    between atoms: _517  and  _518
REMARK  212  A    between atoms: _520  and  _522
REMARK  213  A    between atoms: _522  and  _523
REMARK  214  A    between atoms: _527  and  _528
REMARK  215  A    between atoms: _533  and  _535
REMARK  216  A    between atoms: _535  and  _536
REMARK  217  A    between atoms: _535  and  _538
REMARK  218  A    between atoms: _538  and  _539
REMARK  219  A    between atoms: _542  and  _544
REMARK  220  A    between atoms: _544  and  _545
REMARK  221  A    between atoms: _544  and  _547
REMARK  222  A    between atoms: _547  and  _548
REMARK  223  A    between atoms: _558  and  _560
REMARK  224  A    between atoms: _560  and  _561
REMARK  225  A    between atoms: _560  and  _563
REMARK  226  A    between atoms: _563  and  _564
REMARK  227  A    between atoms: _567  and  _569
REMARK  228  A    between atoms: _569  and  _570
REMARK  229  A    between atoms: _569  and  _572
REMARK  230  A    between atoms: _574  and  _576
REMARK  231  A    between atoms: _576  and  _577
REMARK  232  A    between atoms: _576  and  _579
REMARK  233  A    between atoms: _579  and  _580
REMARK  234  A    between atoms: _580  and  _581
REMARK  235  A    between atoms: _586  and  _588
REMARK  236  A    between atoms: _588  and  _589
REMARK  237  A    between atoms: _588  and  _591
REMARK  238  A    between atoms: _591  and  _592
REMARK  239  A    between atoms: _595  and  _597
REMARK  240  A    between atoms: _597  and  _598
REMARK  241  A    between atoms: _597  and  _600
REMARK  242  A    between atoms: _600  and  _601
REMARK  243  A    between atoms: _606  and  _607
REMARK  244  A    between atoms: _609  and  _611
REMARK  245  A    between atoms: _611  and  _612
REMARK  246  A    between atoms: _614  and  _616
REMARK  247  A    between atoms: _616  and  _617
REMARK  248  A    between atoms: _620  and  _622
REMARK  249  A    between atoms: _622  and  _623
REMARK  250  A    between atoms: _622  and  _625
REMARK  251  A    between atoms: _627  and  _629
REMARK  252  A    between atoms: _629  and  _630
REMARK  253  A    between atoms: _629  and  _632
REMARK  254  A    between atoms: _632  and  _633
REMARK  255  A    between atoms: _638  and  _639
REMARK  256  A    between atoms: _641  and  _643
REMARK  257  A    between atoms: _643  and  _644
REMARK  258  A    between atoms: _643  and  _646
REMARK  259  A    between atoms: _646  and  _647
REMARK  260  A    between atoms: _650  and  _652
REMARK  261  A    between atoms: _652  and  _653
REMARK  262  A    between atoms: _652  and  _655
REMARK  263  A    between atoms: _655  and  _656
REMARK  264  A    between atoms: _661  and  _663
REMARK  265  A    between atoms: _663  and  _664
REMARK  266  A    between atoms: _663  and  _666
REMARK  267  A    between atoms: _666  and  _667
REMARK  268  A    between atoms: _673  and  _675
REMARK  269  A    between atoms: _675  and  _676
REMARK  270  A    between atoms: _679  and  _681
REMARK  271  A    between atoms: _681  and  _682
REMARK  272  A    between atoms: _684  and  _686
REMARK  273  A    between atoms: _686  and  _687
REMARK  274  A    between atoms: _686  and  _689
REMARK  275  A    between atoms: _689  and  _690
REMARK  276  A    between atoms: _695  and  _696
REMARK  277  A    between atoms: _698  and  _700
REMARK  278  A    between atoms: _700  and  _701
REMARK  279  A    between atoms: _700  and  _703
REMARK  280  A    between atoms: _703  and  _704
REMARK  281  A    between atoms: _706  and  _708
REMARK  282  A    between atoms: _708  and  _709
REMARK  283  A    between atoms: _711  and  _713
REMARK  284  A    between atoms: _713  and  _714
REMARK                            x       y       z     vdW  Elec       q    Type
REMARK                         _______ _______ _______ _____ _____    ______ ____
ROOT
ATOM      1  O   HOH     1      33.773  15.235  36.488  0.00  0.00    +0.000 OA
ENDROOT
TORSDOF 0
REMARK  Name = ../refined-set-2016/3gnw/3gnw_pocket.pdb
REMARK  284 active torsions:
REMARK  status: ('A' for Active; 'I' for Inactive)
REMARK    1  A    between atoms: _1  and  _3
REMARK    2  A    between atoms: _3  and  _4
REMARK    3  A    between atoms: _3  and  _6
REMARK    4  A    between atoms: _6  and  _7
REMARK    5  A    between atoms: _7  and  _8
REMARK    6  A    between atoms: _8  and  _9
REMARK    7  A    between atoms: _9  and  _10
REMARK    8  A    between atoms: _14  and  _16
REMARK    9  A    between atoms: _16  and  _17
REMARK   10  A    between atoms: _16  and  _19
REMARK   11  A    between atoms: _19  and  _20
REMARK   12  A    between atoms: _20  and  _21
REMARK   13  A    between atoms: _24  and  _26
REMARK   14  A    between atoms: _26  and  _27
REMARK   15  A    between atoms: _26  and  _29
REMARK   16  A    between atoms: _29  and  _30
REMARK   17  A    between atoms: _36  and  _38
REMARK   18  A    between atoms: _38  and  _39
REMARK   19  A    between atoms: _38  and  _41
REMARK   20  A    between atoms: _41  and  _42
REMARK   21  A    between atoms: _42  and  _43
REMARK   22  A    between atoms: _43  and  _44
REMARK   23  A    between atoms: _53  and  _55
REMARK   24  A    between atoms: _55  and  _56
REMARK   25  A    between atoms: _55  and  _58
REMARK   26  A    between atoms: _58  and  _59
REMARK   27  A    between atoms: _62  and  _64
REMARK   28  A    between atoms: _64  and  _65
REMARK   29  A    between atoms: _67  and  _69
REMARK   30  A    between atoms: _69  and  _70
REMARK   31  A    between atoms: _69  and  _72
REMARK   32  A    between atoms: _72  and  _73
REMARK   33  A    between atoms: _79  and  _81
REMARK   34  A    between atoms: _81  and  _82
REMARK   35  A    between atoms: _81  and  _84
REMARK   36  A    between atoms: _84  and  _85
REMARK   37  A    between atoms: _90  and  _91
REMARK   38  A    between atoms: _93  and  _95
REMARK   39  A    between atoms: _95  and  _96
REMARK   40  A    between atoms: _95  and  _98
REMARK   41  A    between atoms: _98  and  _99
REMARK   42  A    between atoms: _102  and  _103
REMARK   43  A    between atoms: _108  and  _110
REMARK   44  A    between atoms: _110  and  _111
REMARK   45  A    between atoms: _110  and  _113
REMARK   46  A    between atoms: _113  and  _114
REMARK   47  A    between atoms: _114  and  _115
REMARK   48  A    between atoms: _115  and  _116
REMARK   49  A    between atoms: _116  and  _117
REMARK   50  A    between atoms: _121  and  _123
REMARK   51  A    between atoms: _123  and  _124
REMARK   52  A    between atoms: _123  and  _126
REMARK   53  A    between atoms: _126  and  _127
REMARK   54  A    between atoms: _127  and  _128
REMARK   55  A    between atoms: _133  and  _135
REMARK   56  A    between atoms: _135  and  _136
REMARK   57  A    between atoms: _135  and  _138
REMARK   58  A    between atoms: _138  and  _139
REMARK   59  A    between atoms: _139  and  _140
REMARK   60  A    between atoms: _140  and  _141
REMARK   61  A    between atoms: _150  and  _152
REMARK   62  A    between atoms: _152  and  _153
REMARK   63  A    between atoms: _152  and  _155
REMARK   64  A    between atoms: _158  and  _160
REMARK   65  A    between atoms: _160  and  _161
REMARK   66  A    between atoms: _160  and  _163
REMARK   67  A    between atoms: _163  and  _164
REMARK   68  A    between atoms: _167  and  _169
REMARK   69  A    between atoms: _169  and  _170
REMARK   70  A    between atoms: _169  and  _172
REMARK   71  A    between atoms: _172  and  _173
REMARK   72  A    between atoms: _179  and  _181
REMARK   73  A    between atoms: _181  and  _182
REMARK   74  A    between atoms: _181  and  _184
REMARK   75  A    between atoms: _184  and  _185
REMARK   76  A    between atoms: _188  and  _190
REMARK   77  A    between atoms: _190  and  _191
REMARK   78  A    between atoms: _190  and  _193
REMARK   79  A    between atoms: _193  and  _194
REMARK   80  A    between atoms: _196  and  _198
REMARK   81  A    between atoms: _198  and  _199
REMARK   82  A    between atoms: _198  and  _201
REMARK   83  A    between atoms: _201  and  _202
REMARK   84  A    between atoms: _205  and  _207
REMARK   85  A    between atoms: _207  and  _208
REMARK   86  A    between atoms: _207  and  _210
REMARK   87  A    between atoms: _210  and  _211
REMARK   88  A    between atoms: _213  and  _215
REMARK   89  A    between atoms: _215  and  _216
REMARK   90  A    between atoms: _215  and  _218
REMARK   91  A    between atoms: _218  and  _219
REMARK   92  A    between atoms: _224  and  _226
REMARK   93  A    between atoms: _226  and  _227
REMARK   94  A    between atoms: _226  and  _229
REMARK   95  A    between atoms: _229  and  _230
REMARK   96  A    between atoms: _233  and  _235
REMARK   97  A    between atoms: _235  and  _236
REMARK   98  A    between atoms: _235  and  _238
REMARK   99  A    between atoms: _238  and  _239
REMARK  100  A    between atoms: _244  and  _246
REMARK  101  A    between atoms: _246  and  _247
REMARK  102  A    between atoms: _249  and  _251
REMARK  103  A    between atoms: _251  and  _252
REMARK  104  A    between atoms: _251  and  _254
REMARK  105  A    between atoms: _254  and  _255
REMARK  106  A    between atoms: _258  and  _260
REMARK  107  A    between atoms: _260  and  _261
REMARK  108  A    between atoms: _260  and  _263
REMARK  109  A    between atoms: _263  and  _264
REMARK  110  A    between atoms: _267  and  _269
REMARK  111  A    between atoms: _269  and  _270
REMARK  112  A    between atoms: _269  and  _272
REMARK  113  A    between atoms: _272  and  _273
REMARK  114  A    between atoms: _276  and  _278
REMARK  115  A    between atoms: _278  and  _279
REMARK  116  A    between atoms: _278  and  _281
REMARK  117  A    between atoms: _281  and  _282
REMARK  118  A    between atoms: _284  and  _286
REMARK  119  A    between atoms: _286  and  _287
REMARK  120  A    between atoms: _286  and  _289
REMARK  121  A    between atoms: _291  and  _293
REMARK  122  A    between atoms: _293  and  _294
REMARK  123  A    between atoms: _293  and  _296
REMARK  124  A    between atoms: _296  and  _297
REMARK  125  A    between atoms: _299  and  _301
REMARK  126  A    between atoms: _301  and  _302
REMARK  127  A    between atoms: _301  and  _304
REMARK  128  A    between atoms: _304  and  _305
REMARK  129  A    between atoms: _307  and  _309
REMARK  130  A    between atoms: _309  and  _310
REMARK  131  A    between atoms: _309  and  _312
REMARK  132  A    between atoms: _312  and  _313
REMARK  133  A    between atoms: _318  and  _320
REMARK  134  A    between atoms: _320  and  _321
REMARK  135  A    between atoms: _320  and  _323
REMARK  136  A    between atoms: _323  and  _324
REMARK  137  A    between atoms: _329  and  _330
REMARK  138  A    between atoms: _332  and  _334
REMARK  139  A    between atoms: _334  and  _335
REMARK  140  A    between atoms: _334  and  _337
REMARK  141  A    between atoms: _337  and  _338
REMARK  142  A    between atoms: _341  and  _343
REMARK  143  A    between atoms: _343  and  _344
REMARK  144  A    between atoms: _343  and  _346
REMARK  145  A    between atoms: _346  and  _347
REMARK  146  A    between atoms: _350  and  _352
REMARK  147  A    between atoms: _352  and  _353
REMARK  148  A    between atoms: _352  and  _355
REMARK  149  A    between atoms: _355  and  _356
REMARK  150  A    between atoms: _356  and  _357
REMARK  151  A    between atoms: _357  and  _358
REMARK  152  A    between atoms: _367  and  _369
REMARK  153  A    between atoms: _369  and  _370
REMARK  154  A    between atoms: _369  and  _372
REMARK  155  A    between atoms: _372  and  _373
REMARK  156  A    between atoms: _377  and  _378
REMARK  157  A    between atoms: _383  and  _385
REMARK  158  A    between atoms: _385  and  _386
REMARK  159  A    between atoms: _385  and  _388
REMARK  160  A    between atoms: _388  and  _389
REMARK  161  A    between atoms: _389  and  _390
REMARK  162  A    between atoms: _390  and  _391
REMARK  163  A    between atoms: _400  and  _402
REMARK  164  A    between atoms: _402  and  _403
REMARK  165  A    between atoms: _402  and  _405
REMARK  166  A    between atoms: _405  and  _406
REMARK  167  A    between atoms: _406  and  _407
REMARK  168  A    between atoms: _410  and  _412
REMARK  169  A    between atoms: _412  and  _413
REMARK  170  A    between atoms: _412  and  _415
REMARK  171  A    between atoms: _415  and  _416
REMARK  172  A    between atoms: _419  and  _421
REMARK  173  A    between atoms: _421  and  _422
REMARK  174  A    between atoms: _421  and  _424
REMARK  175  A    between atoms: _424  and  _425
REMARK  176  A    between atoms: _430  and  _432
REMARK  177  A    between atoms: _432  and  _433
REMARK  178  A    between atoms: _432  and  _435
REMARK  179  A    between atoms: _435  and  _436
REMARK  180  A    between atoms: _438  and  _440
REMARK  181  A    between atoms: _440  and  _441
REMARK  182  A    between atoms: _440  and  _443
REMARK  183  A    between atoms: _443  and  _444
REMARK  184  A    between atoms: _454  and  _456
REMARK  185  A    between atoms: _456  and  _457
REMARK  186  A    between atoms: _456  and  _459
REMARK  187  A    between atoms: _459  and  _460
REMARK  188  A    between atoms: _463  and  _465
REMARK  189  A    between atoms: _465  and  _466
REMARK  190  A    between atoms: _468  and  _470
REMARK  191  A    between atoms: _470  and  _471
REMARK  192  A    between atoms: _470  and  _473
REMARK  193  A    between atoms: _473  and  _474
REMARK  194  A    between atoms: _479  and  _481
REMARK  195  A    between atoms: _481  and  _482
REMARK  196  A    between atoms: _481  and  _484
REMARK  197  A    between atoms: _484  and  _485
REMARK  198  A    between atoms: _488  and  _490
REMARK  199  A    between atoms: _490  and  _491
REMARK  200  A    between atoms: _490  and  _493
REMARK  201  A    between atoms: _493  and  _494
REMARK  202  A    between atoms: _497  and  _499
REMARK  203  A    between atoms: _499  and  _500
REMARK  204  A    between atoms: _499  and  _502
REMARK  205  A    between atoms: _502  and  _503
REMARK  206  A    between atoms: _503  and  _504
REMARK  207  A    between atoms: _506  and  _508
REMARK  208  A    between atoms: _508  and  _509
REMARK  209  A    between atoms: _508  and  _511
REMARK  210  A    between atoms: _511  and  _512
REMARK  211  A    between atoms: _517  and  _518
REMARK  212  A    between atoms: _520  and  _522
REMARK  213  A    between atoms: _522  and  _523
REMARK  214  A    between atoms: _527  and  _528
REMARK  215  A    between atoms: _533  and  _535
REMARK  216  A    between atoms: _535  and  _536
REMARK  217  A    between atoms: _535  and  _538
REMARK  218  A    between atoms: _538  and  _539
REMARK  219  A    between atoms: _542  and  _544
REMARK  220  A    between atoms: _544  and  _545
REMARK  221  A    between atoms: _544  and  _547
REMARK  222  A    between atoms: _547  and  _548
REMARK  223  A    between atoms: _558  and  _560
REMARK  224  A    between atoms: _560  and  _561
REMARK  225  A    between atoms: _560  and  _563
REMARK  226  A    between atoms: _563  and  _564
REMARK  227  A    between atoms: _567  and  _569
REMARK  228  A    between atoms: _569  and  _570
REMARK  229  A    between atoms: _569  and  _572
REMARK  230  A    between atoms: _574  and  _576
REMARK  231  A    between atoms: _576  and  _577
REMARK  232  A    between atoms: _576  and  _579
REMARK  233  A    between atoms: _579  and  _580
REMARK  234  A    between atoms: _580  and  _581
REMARK  235  A    between atoms: _586  and  _588
REMARK  236  A    between atoms: _588  and  _589
REMARK  237  A    between atoms: _588  and  _591
REMARK  238  A    between atoms: _591  and  _592
REMARK  239  A    between atoms: _595  and  _597
REMARK  240  A    between atoms: _597  and  _598
REMARK  241  A    between atoms: _597  and  _600
REMARK  242  A    between atoms: _600  and  _601
REMARK  243  A    between atoms: _606  and  _607
REMARK  244  A    between atoms: _609  and  _611
REMARK  245  A    between atoms: _611  and  _612
REMARK  246  A    between atoms: _614  and  _616
REMARK  247  A    between atoms: _616  and  _617
REMARK  248  A    between atoms: _620  and  _622
REMARK  249  A    between atoms: _622  and  _623
REMARK  250  A    between atoms: _622  and  _625
REMARK  251  A    between atoms: _627  and  _629
REMARK  252  A    between atoms: _629  and  _630
REMARK  253  A    between atoms: _629  and  _632
REMARK  254  A    between atoms: _632  and  _633
REMARK  255  A    between atoms: _638  and  _639
REMARK  256  A    between atoms: _641  and  _643
REMARK  257  A    between atoms: _643  and  _644
REMARK  258  A    between atoms: _643  and  _646
REMARK  259  A    between atoms: _646  and  _647
REMARK  260  A    between atoms: _650  and  _652
REMARK  261  A    between atoms: _652  and  _653
REMARK  262  A    between atoms: _652  and  _655
REMARK  263  A    between atoms: _655  and  _656
REMARK  264  A    between atoms: _661  and  _663
REMARK  265  A    between atoms: _663  and  _664
REMARK  266  A    between atoms: _663  and  _666
REMARK  267  A    between atoms: _666  and  _667
REMARK  268  A    between atoms: _673  and  _675
REMARK  269  A    between atoms: _675  and  _676
REMARK  270  A    between atoms: _679  and  _681
REMARK  271  A    between atoms: _681  and  _682
REMARK  272  A    between atoms: _684  and  _686
REMARK  273  A    between atoms: _686  and  _687
REMARK  274  A    between atoms: _686  and  _689
REMARK  275  A    between atoms: _689  and  _690
REMARK  276  A    between atoms: _695  and  _696
REMARK  277  A    between atoms: _698  and  _700
REMARK  278  A    between atoms: _700  and  _701
REMARK  279  A    between atoms: _700  and  _703
REMARK  280  A    between atoms: _703  and  _704
REMARK  281  A    between atoms: _706  and  _708
REMARK  282  A    between atoms: _708  and  _709
REMARK  283  A    between atoms: _711  and  _713
REMARK  284  A    between atoms: _713  and  _714
REMARK                            x       y       z     vdW  Elec       q    Type
REMARK                         _______ _______ _______ _____ _____    ______ ____
ROOT
ATOM      1  O   HOH     1      31.667  10.073  40.280  0.00  0.00    +0.000 OA
ENDROOT
TORSDOF 0
REMARK  Name = ../refined-set-2016/3gnw/3gnw_pocket.pdb
REMARK  284 active torsions:
REMARK  status: ('A' for Active; 'I' for Inactive)
REMARK    1  A    between atoms: _1  and  _3
REMARK    2  A    between atoms: _3  and  _4
REMARK    3  A    between atoms: _3  and  _6
REMARK    4  A    between atoms: _6  and  _7
REMARK    5  A    between atoms: _7  and  _8
REMARK    6  A    between atoms: _8  and  _9
REMARK    7  A    between atoms: _9  and  _10
REMARK    8  A    between atoms: _14  and  _16
REMARK    9  A    between atoms: _16  and  _17
REMARK   10  A    between atoms: _16  and  _19
REMARK   11  A    between atoms: _19  and  _20
REMARK   12  A    between atoms: _20  and  _21
REMARK   13  A    between atoms: _24  and  _26
REMARK   14  A    between atoms: _26  and  _27
REMARK   15  A    between atoms: _26  and  _29
REMARK   16  A    between atoms: _29  and  _30
REMARK   17  A    between atoms: _36  and  _38
REMARK   18  A    between atoms: _38  and  _39
REMARK   19  A    between atoms: _38  and  _41
REMARK   20  A    between atoms: _41  and  _42
REMARK   21  A    between atoms: _42  and  _43
REMARK   22  A    between atoms: _43  and  _44
REMARK   23  A    between atoms: _53  and  _55
REMARK   24  A    between atoms: _55  and  _56
REMARK   25  A    between atoms: _55  and  _58
REMARK   26  A    between atoms: _58  and  _59
REMARK   27  A    between atoms: _62  and  _64
REMARK   28  A    between atoms: _64  and  _65
REMARK   29  A    between atoms: _67  and  _69
REMARK   30  A    between atoms: _69  and  _70
REMARK   31  A    between atoms: _69  and  _72
REMARK   32  A    between atoms: _72  and  _73
REMARK   33  A    between atoms: _79  and  _81
REMARK   34  A    between atoms: _81  and  _82
REMARK   35  A    between atoms: _81  and  _84
REMARK   36  A    between atoms: _84  and  _85
REMARK   37  A    between atoms: _90  and  _91
REMARK   38  A    between atoms: _93  and  _95
REMARK   39  A    between atoms: _95  and  _96
REMARK   40  A    between atoms: _95  and  _98
REMARK   41  A    between atoms: _98  and  _99
REMARK   42  A    between atoms: _102  and  _103
REMARK   43  A    between atoms: _108  and  _110
REMARK   44  A    between atoms: _110  and  _111
REMARK   45  A    between atoms: _110  and  _113
REMARK   46  A    between atoms: _113  and  _114
REMARK   47  A    between atoms: _114  and  _115
REMARK   48  A    between atoms: _115  and  _116
REMARK   49  A    between atoms: _116  and  _117
REMARK   50  A    between atoms: _121  and  _123
REMARK   51  A    between atoms: _123  and  _124
REMARK   52  A    between atoms: _123  and  _126
REMARK   53  A    between atoms: _126  and  _127
REMARK   54  A    between atoms: _127  and  _128
REMARK   55  A    between atoms: _133  and  _135
REMARK   56  A    between atoms: _135  and  _136
REMARK   57  A    between atoms: _135  and  _138
REMARK   58  A    between atoms: _138  and  _139
REMARK   59  A    between atoms: _139  and  _140
REMARK   60  A    between atoms: _140  and  _141
REMARK   61  A    between atoms: _150  and  _152
REMARK   62  A    between atoms: _152  and  _153
REMARK   63  A    between atoms: _152  and  _155
REMARK   64  A    between atoms: _158  and  _160
REMARK   65  A    between atoms: _160  and  _161
REMARK   66  A    between atoms: _160  and  _163
REMARK   67  A    between atoms: _163  and  _164
REMARK   68  A    between atoms: _167  and  _169
REMARK   69  A    between atoms: _169  and  _170
REMARK   70  A    between atoms: _169  and  _172
REMARK   71  A    between atoms: _172  and  _173
REMARK   72  A    between atoms: _179  and  _181
REMARK   73  A    between atoms: _181  and  _182
REMARK   74  A    between atoms: _181  and  _184
REMARK   75  A    between atoms: _184  and  _185
REMARK   76  A    between atoms: _188  and  _190
REMARK   77  A    between atoms: _190  and  _191
REMARK   78  A    between atoms: _190  and  _193
REMARK   79  A    between atoms: _193  and  _194
REMARK   80  A    between atoms: _196  and  _198
REMARK   81  A    between atoms: _198  and  _199
REMARK   82  A    between atoms: _198  and  _201
REMARK   83  A    between atoms: _201  and  _202
REMARK   84  A    between atoms: _205  and  _207
REMARK   85  A    between atoms: _207  and  _208
REMARK   86  A    between atoms: _207  and  _210
REMARK   87  A    between atoms: _210  and  _211
REMARK   88  A    between atoms: _213  and  _215
REMARK   89  A    between atoms: _215  and  _216
REMARK   90  A    between atoms: _215  and  _218
REMARK   91  A    between atoms: _218  and  _219
REMARK   92  A    between atoms: _224  and  _226
REMARK   93  A    between atoms: _226  and  _227
REMARK   94  A    between atoms: _226  and  _229
REMARK   95  A    between atoms: _229  and  _230
REMARK   96  A    between atoms: _233  and  _235
REMARK   97  A    between atoms: _235  and  _236
REMARK   98  A    between atoms: _235  and  _238
REMARK   99  A    between atoms: _238  and  _239
REMARK  100  A    between atoms: _244  and  _246
REMARK  101  A    between atoms: _246  and  _247
REMARK  102  A    between atoms: _249  and  _251
REMARK  103  A    between atoms: _251  and  _252
REMARK  104  A    between atoms: _251  and  _254
REMARK  105  A    between atoms: _254  and  _255
REMARK  106  A    between atoms: _258  and  _260
REMARK  107  A    between atoms: _260  and  _261
REMARK  108  A    between atoms: _260  and  _263
REMARK  109  A    between atoms: _263  and  _264
REMARK  110  A    between atoms: _267  and  _269
REMARK  111  A    between atoms: _269  and  _270
REMARK  112  A    between atoms: _269  and  _272
REMARK  113  A    between atoms: _272  and  _273
REMARK  114  A    between atoms: _276  and  _278
REMARK  115  A    between atoms: _278  and  _279
REMARK  116  A    between atoms: _278  and  _281
REMARK  117  A    between atoms: _281  and  _282
REMARK  118  A    between atoms: _284  and  _286
REMARK  119  A    between atoms: _286  and  _287
REMARK  120  A    between atoms: _286  and  _289
REMARK  121  A    between atoms: _291  and  _293
REMARK  122  A    between atoms: _293  and  _294
REMARK  123  A    between atoms: _293  and  _296
REMARK  124  A    between atoms: _296  and  _297
REMARK  125  A    between atoms: _299  and  _301
REMARK  126  A    between atoms: _301  and  _302
REMARK  127  A    between atoms: _301  and  _304
REMARK  128  A    between atoms: _304  and  _305
REMARK  129  A    between atoms: _307  and  _309
REMARK  130  A    between atoms: _309  and  _310
REMARK  131  A    between atoms: _309  and  _312
REMARK  132  A    between atoms: _312  and  _313
REMARK  133  A    between atoms: _318  and  _320
REMARK  134  A    between atoms: _320  and  _321
REMARK  135  A    between atoms: _320  and  _323
REMARK  136  A    between atoms: _323  and  _324
REMARK  137  A    between atoms: _329  and  _330
REMARK  138  A    between atoms: _332  and  _334
REMARK  139  A    between atoms: _334  and  _335
REMARK  140  A    between atoms: _334  and  _337
REMARK  141  A    between atoms: _337  and  _338
REMARK  142  A    between atoms: _341  and  _343
REMARK  143  A    between atoms: _343  and  _344
REMARK  144  A    between atoms: _343  and  _346
REMARK  145  A    between atoms: _346  and  _347
REMARK  146  A    between atoms: _350  and  _352
REMARK  147  A    between atoms: _352  and  _353
REMARK  148  A    between atoms: _352  and  _355
REMARK  149  A    between atoms: _355  and  _356
REMARK  150  A    between atoms: _356  and  _357
REMARK  151  A    between atoms: _357  and  _358
REMARK  152  A    between atoms: _367  and  _369
REMARK  153  A    between atoms: _369  and  _370
REMARK  154  A    between atoms: _369  and  _372
REMARK  155  A    between atoms: _372  and  _373
REMARK  156  A    between atoms: _377  and  _378
REMARK  157  A    between atoms: _383  and  _385
REMARK  158  A    between atoms: _385  and  _386
REMARK  159  A    between atoms: _385  and  _388
REMARK  160  A    between atoms: _388  and  _389
REMARK  161  A    between atoms: _389  and  _390
REMARK  162  A    between atoms: _390  and  _391
REMARK  163  A    between atoms: _400  and  _402
REMARK  164  A    between atoms: _402  and  _403
REMARK  165  A    between atoms: _402  and  _405
REMARK  166  A    between atoms: _405  and  _406
REMARK  167  A    between atoms: _406  and  _407
REMARK  168  A    between atoms: _410  and  _412
REMARK  169  A    between atoms: _412  and  _413
REMARK  170  A    between atoms: _412  and  _415
REMARK  171  A    between atoms: _415  and  _416
REMARK  172  A    between atoms: _419  and  _421
REMARK  173  A    between atoms: _421  and  _422
REMARK  174  A    between atoms: _421  and  _424
REMARK  175  A    between atoms: _424  and  _425
REMARK  176  A    between atoms: _430  and  _432
REMARK  177  A    between atoms: _432  and  _433
REMARK  178  A    between atoms: _432  and  _435
REMARK  179  A    between atoms: _435  and  _436
REMARK  180  A    between atoms: _438  and  _440
REMARK  181  A    between atoms: _440  and  _441
REMARK  182  A    between atoms: _440  and  _443
REMARK  183  A    between atoms: _443  and  _444
REMARK  184  A    between atoms: _454  and  _456
REMARK  185  A    between atoms: _456  and  _457
REMARK  186  A    between atoms: _456  and  _459
REMARK  187  A    between atoms: _459  and  _460
REMARK  188  A    between atoms: _463  and  _465
REMARK  189  A    between atoms: _465  and  _466
REMARK  190  A    between atoms: _468  and  _470
REMARK  191  A    between atoms: _470  and  _471
REMARK  192  A    between atoms: _470  and  _473
REMARK  193  A    between atoms: _473  and  _474
REMARK  194  A    between atoms: _479  and  _481
REMARK  195  A    between atoms: _481  and  _482
REMARK  196  A    between atoms: _481  and  _484
REMARK  197  A    between atoms: _484  and  _485
REMARK  198  A    between atoms: _488  and  _490
REMARK  199  A    between atoms: _490  and  _491
REMARK  200  A    between atoms: _490  and  _493
REMARK  201  A    between atoms: _493  and  _494
REMARK  202  A    between atoms: _497  and  _499
REMARK  203  A    between atoms: _499  and  _500
REMARK  204  A    between atoms: _499  and  _502
REMARK  205  A    between atoms: _502  and  _503
REMARK  206  A    between atoms: _503  and  _504
REMARK  207  A    between atoms: _506  and  _508
REMARK  208  A    between atoms: _508  and  _509
REMARK  209  A    between atoms: _508  and  _511
REMARK  210  A    between atoms: _511  and  _512
REMARK  211  A    between atoms: _517  and  _518
REMARK  212  A    between atoms: _520  and  _522
REMARK  213  A    between atoms: _522  and  _523
REMARK  214  A    between atoms: _527  and  _528
REMARK  215  A    between atoms: _533  and  _535
REMARK  216  A    between atoms: _535  and  _536
REMARK  217  A    between atoms: _535  and  _538
REMARK  218  A    between atoms: _538  and  _539
REMARK  219  A    between atoms: _542  and  _544
REMARK  220  A    between atoms: _544  and  _545
REMARK  221  A    between atoms: _544  and  _547
REMARK  222  A    between atoms: _547  and  _548
REMARK  223  A    between atoms: _558  and  _560
REMARK  224  A    between atoms: _560  and  _561
REMARK  225  A    between atoms: _560  and  _563
REMARK  226  A    between atoms: _563  and  _564
REMARK  227  A    between atoms: _567  and  _569
REMARK  228  A    between atoms: _569  and  _570
REMARK  229  A    between atoms: _569  and  _572
REMARK  230  A    between atoms: _574  and  _576
REMARK  231  A    between atoms: _576  and  _577
REMARK  232  A    between atoms: _576  and  _579
REMARK  233  A    between atoms: _579  and  _580
REMARK  234  A    between atoms: _580  and  _581
REMARK  235  A    between atoms: _586  and  _588
REMARK  236  A    between atoms: _588  and  _589
REMARK  237  A    between atoms: _588  and  _591
REMARK  238  A    between atoms: _591  and  _592
REMARK  239  A    between atoms: _595  and  _597
REMARK  240  A    between atoms: _597  and  _598
REMARK  241  A    between atoms: _597  and  _600
REMARK  242  A    between atoms: _600  and  _601
REMARK  243  A    between atoms: _606  and  _607
REMARK  244  A    between atoms: _609  and  _611
REMARK  245  A    between atoms: _611  and  _612
REMARK  246  A    between atoms: _614  and  _616
REMARK  247  A    between atoms: _616  and  _617
REMARK  248  A    between atoms: _620  and  _622
REMARK  249  A    between atoms: _622  and  _623
REMARK  250  A    between atoms: _622  and  _625
REMARK  251  A    between atoms: _627  and  _629
REMARK  252  A    between atoms: _629  and  _630
REMARK  253  A    between atoms: _629  and  _632
REMARK  254  A    between atoms: _632  and  _633
REMARK  255  A    between atoms: _638  and  _639
REMARK  256  A    between atoms: _641  and  _643
REMARK  257  A    between atoms: _643  and  _644
REMARK  258  A    between atoms: _643  and  _646
REMARK  259  A    between atoms: _646  and  _647
REMARK  260  A    between atoms: _650  and  _652
REMARK  261  A    between atoms: _652  and  _653
REMARK  262  A    between atoms: _652  and  _655
REMARK  263  A    between atoms: _655  and  _656
REMARK  264  A    between atoms: _661  and  _663
REMARK  265  A    between atoms: _663  and  _664
REMARK  266  A    between atoms: _663  and  _666
REMARK  267  A    between atoms: _666  and  _667
REMARK  268  A    between atoms: _673  and  _675
REMARK  269  A    between atoms: _675  and  _676
REMARK  270  A    between atoms: _679  and  _681
REMARK  271  A    between atoms: _681  and  _682
REMARK  272  A    between atoms: _684  and  _686
REMARK  273  A    between atoms: _686  and  _687
REMARK  274  A    between atoms: _686  and  _689
REMARK  275  A    between atoms: _689  and  _690
REMARK  276  A    between atoms: _695  and  _696
REMARK  277  A    between atoms: _698  and  _700
REMARK  278  A    between atoms: _700  and  _701
REMARK  279  A    between atoms: _700  and  _703
REMARK  280  A    between atoms: _703  and  _704
REMARK  281  A    between atoms: _706  and  _708
REMARK  282  A    between atoms: _708  and  _709
REMARK  283  A    between atoms: _711  and  _713
REMARK  284  A    between atoms: _713  and  _714
REMARK                            x       y       z     vdW  Elec       q    Type
REMARK                         _______ _______ _______ _____ _____    ______ ____
ROOT
ATOM      1  O   HOH     1      37.590   6.247  46.937  0.00  0.00    +0.000 OA
ENDROOT
TORSDOF 0
REMARK  Name = ../refined-set-2016/3gnw/3gnw_pocket.pdb
REMARK  284 active torsions:
REMARK  status: ('A' for Active; 'I' for Inactive)
REMARK    1  A    between atoms: _1  and  _3
REMARK    2  A    between atoms: _3  and  _4
REMARK    3  A    between atoms: _3  and  _6
REMARK    4  A    between atoms: _6  and  _7
REMARK    5  A    between atoms: _7  and  _8
REMARK    6  A    between atoms: _8  and  _9
REMARK    7  A    between atoms: _9  and  _10
REMARK    8  A    between atoms: _14  and  _16
REMARK    9  A    between atoms: _16  and  _17
REMARK   10  A    between atoms: _16  and  _19
REMARK   11  A    between atoms: _19  and  _20
REMARK   12  A    between atoms: _20  and  _21
REMARK   13  A    between atoms: _24  and  _26
REMARK   14  A    between atoms: _26  and  _27
REMARK   15  A    between atoms: _26  and  _29
REMARK   16  A    between atoms: _29  and  _30
REMARK   17  A    between atoms: _36  and  _38
REMARK   18  A    between atoms: _38  and  _39
REMARK   19  A    between atoms: _38  and  _41
REMARK   20  A    between atoms: _41  and  _42
REMARK   21  A    between atoms: _42  and  _43
REMARK   22  A    between atoms: _43  and  _44
REMARK   23  A    between atoms: _53  and  _55
REMARK   24  A    between atoms: _55  and  _56
REMARK   25  A    between atoms: _55  and  _58
REMARK   26  A    between atoms: _58  and  _59
REMARK   27  A    between atoms: _62  and  _64
REMARK   28  A    between atoms: _64  and  _65
REMARK   29  A    between atoms: _67  and  _69
REMARK   30  A    between atoms: _69  and  _70
REMARK   31  A    between atoms: _69  and  _72
REMARK   32  A    between atoms: _72  and  _73
REMARK   33  A    between atoms: _79  and  _81
REMARK   34  A    between atoms: _81  and  _82
REMARK   35  A    between atoms: _81  and  _84
REMARK   36  A    between atoms: _84  and  _85
REMARK   37  A    between atoms: _90  and  _91
REMARK   38  A    between atoms: _93  and  _95
REMARK   39  A    between atoms: _95  and  _96
REMARK   40  A    between atoms: _95  and  _98
REMARK   41  A    between atoms: _98  and  _99
REMARK   42  A    between atoms: _102  and  _103
REMARK   43  A    between atoms: _108  and  _110
REMARK   44  A    between atoms: _110  and  _111
REMARK   45  A    between atoms: _110  and  _113
REMARK   46  A    between atoms: _113  and  _114
REMARK   47  A    between atoms: _114  and  _115
REMARK   48  A    between atoms: _115  and  _116
REMARK   49  A    between atoms: _116  and  _117
REMARK   50  A    between atoms: _121  and  _123
REMARK   51  A    between atoms: _123  and  _124
REMARK   52  A    between atoms: _123  and  _126
REMARK   53  A    between atoms: _126  and  _127
REMARK   54  A    between atoms: _127  and  _128
REMARK   55  A    between atoms: _133  and  _135
REMARK   56  A    between atoms: _135  and  _136
REMARK   57  A    between atoms: _135  and  _138
REMARK   58  A    between atoms: _138  and  _139
REMARK   59  A    between atoms: _139  and  _140
REMARK   60  A    between atoms: _140  and  _141
REMARK   61  A    between atoms: _150  and  _152
REMARK   62  A    between atoms: _152  and  _153
REMARK   63  A    between atoms: _152  and  _155
REMARK   64  A    between atoms: _158  and  _160
REMARK   65  A    between atoms: _160  and  _161
REMARK   66  A    between atoms: _160  and  _163
REMARK   67  A    between atoms: _163  and  _164
REMARK   68  A    between atoms: _167  and  _169
REMARK   69  A    between atoms: _169  and  _170
REMARK   70  A    between atoms: _169  and  _172
REMARK   71  A    between atoms: _172  and  _173
REMARK   72  A    between atoms: _179  and  _181
REMARK   73  A    between atoms: _181  and  _182
REMARK   74  A    between atoms: _181  and  _184
REMARK   75  A    between atoms: _184  and  _185
REMARK   76  A    between atoms: _188  and  _190
REMARK   77  A    between atoms: _190  and  _191
REMARK   78  A    between atoms: _190  and  _193
REMARK   79  A    between atoms: _193  and  _194
REMARK   80  A    between atoms: _196  and  _198
REMARK   81  A    between atoms: _198  and  _199
REMARK   82  A    between atoms: _198  and  _201
REMARK   83  A    between atoms: _201  and  _202
REMARK   84  A    between atoms: _205  and  _207
REMARK   85  A    between atoms: _207  and  _208
REMARK   86  A    between atoms: _207  and  _210
REMARK   87  A    between atoms: _210  and  _211
REMARK   88  A    between atoms: _213  and  _215
REMARK   89  A    between atoms: _215  and  _216
REMARK   90  A    between atoms: _215  and  _218
REMARK   91  A    between atoms: _218  and  _219
REMARK   92  A    between atoms: _224  and  _226
REMARK   93  A    between atoms: _226  and  _227
REMARK   94  A    between atoms: _226  and  _229
REMARK   95  A    between atoms: _229  and  _230
REMARK   96  A    between atoms: _233  and  _235
REMARK   97  A    between atoms: _235  and  _236
REMARK   98  A    between atoms: _235  and  _238
REMARK   99  A    between atoms: _238  and  _239
REMARK  100  A    between atoms: _244  and  _246
REMARK  101  A    between atoms: _246  and  _247
REMARK  102  A    between atoms: _249  and  _251
REMARK  103  A    between atoms: _251  and  _252
REMARK  104  A    between atoms: _251  and  _254
REMARK  105  A    between atoms: _254  and  _255
REMARK  106  A    between atoms: _258  and  _260
REMARK  107  A    between atoms: _260  and  _261
REMARK  108  A    between atoms: _260  and  _263
REMARK  109  A    between atoms: _263  and  _264
REMARK  110  A    between atoms: _267  and  _269
REMARK  111  A    between atoms: _269  and  _270
REMARK  112  A    between atoms: _269  and  _272
REMARK  113  A    between atoms: _272  and  _273
REMARK  114  A    between atoms: _276  and  _278
REMARK  115  A    between atoms: _278  and  _279
REMARK  116  A    between atoms: _278  and  _281
REMARK  117  A    between atoms: _281  and  _282
REMARK  118  A    between atoms: _284  and  _286
REMARK  119  A    between atoms: _286  and  _287
REMARK  120  A    between atoms: _286  and  _289
REMARK  121  A    between atoms: _291  and  _293
REMARK  122  A    between atoms: _293  and  _294
REMARK  123  A    between atoms: _293  and  _296
REMARK  124  A    between atoms: _296  and  _297
REMARK  125  A    between atoms: _299  and  _301
REMARK  126  A    between atoms: _301  and  _302
REMARK  127  A    between atoms: _301  and  _304
REMARK  128  A    between atoms: _304  and  _305
REMARK  129  A    between atoms: _307  and  _309
REMARK  130  A    between atoms: _309  and  _310
REMARK  131  A    between atoms: _309  and  _312
REMARK  132  A    between atoms: _312  and  _313
REMARK  133  A    between atoms: _318  and  _320
REMARK  134  A    between atoms: _320  and  _321
REMARK  135  A    between atoms: _320  and  _323
REMARK  136  A    between atoms: _323  and  _324
REMARK  137  A    between atoms: _329  and  _330
REMARK  138  A    between atoms: _332  and  _334
REMARK  139  A    between atoms: _334  and  _335
REMARK  140  A    between atoms: _334  and  _337
REMARK  141  A    between atoms: _337  and  _338
REMARK  142  A    between atoms: _341  and  _343
REMARK  143  A    between atoms: _343  and  _344
REMARK  144  A    between atoms: _343  and  _346
REMARK  145  A    between atoms: _346  and  _347
REMARK  146  A    between atoms: _350  and  _352
REMARK  147  A    between atoms: _352  and  _353
REMARK  148  A    between atoms: _352  and  _355
REMARK  149  A    between atoms: _355  and  _356
REMARK  150  A    between atoms: _356  and  _357
REMARK  151  A    between atoms: _357  and  _358
REMARK  152  A    between atoms: _367  and  _369
REMARK  153  A    between atoms: _369  and  _370
REMARK  154  A    between atoms: _369  and  _372
REMARK  155  A    between atoms: _372  and  _373
REMARK  156  A    between atoms: _377  and  _378
REMARK  157  A    between atoms: _383  and  _385
REMARK  158  A    between atoms: _385  and  _386
REMARK  159  A    between atoms: _385  and  _388
REMARK  160  A    between atoms: _388  and  _389
REMARK  161  A    between atoms: _389  and  _390
REMARK  162  A    between atoms: _390  and  _391
REMARK  163  A    between atoms: _400  and  _402
REMARK  164  A    between atoms: _402  and  _403
REMARK  165  A    between atoms: _402  and  _405
REMARK  166  A    between atoms: _405  and  _406
REMARK  167  A    between atoms: _406  and  _407
REMARK  168  A    between atoms: _410  and  _412
REMARK  169  A    between atoms: _412  and  _413
REMARK  170  A    between atoms: _412  and  _415
REMARK  171  A    between atoms: _415  and  _416
REMARK  172  A    between atoms: _419  and  _421
REMARK  173  A    between atoms: _421  and  _422
REMARK  174  A    between atoms: _421  and  _424
REMARK  175  A    between atoms: _424  and  _425
REMARK  176  A    between atoms: _430  and  _432
REMARK  177  A    between atoms: _432  and  _433
REMARK  178  A    between atoms: _432  and  _435
REMARK  179  A    between atoms: _435  and  _436
REMARK  180  A    between atoms: _438  and  _440
REMARK  181  A    between atoms: _440  and  _441
REMARK  182  A    between atoms: _440  and  _443
REMARK  183  A    between atoms: _443  and  _444
REMARK  184  A    between atoms: _454  and  _456
REMARK  185  A    between atoms: _456  and  _457
REMARK  186  A    between atoms: _456  and  _459
REMARK  187  A    between atoms: _459  and  _460
REMARK  188  A    between atoms: _463  and  _465
REMARK  189  A    between atoms: _465  and  _466
REMARK  190  A    between atoms: _468  and  _470
REMARK  191  A    between atoms: _470  and  _471
REMARK  192  A    between atoms: _470  and  _473
REMARK  193  A    between atoms: _473  and  _474
REMARK  194  A    between atoms: _479  and  _481
REMARK  195  A    between atoms: _481  and  _482
REMARK  196  A    between atoms: _481  and  _484
REMARK  197  A    between atoms: _484  and  _485
REMARK  198  A    between atoms: _488  and  _490
REMARK  199  A    between atoms: _490  and  _491
REMARK  200  A    between atoms: _490  and  _493
REMARK  201  A    between atoms: _493  and  _494
REMARK  202  A    between atoms: _497  and  _499
REMARK  203  A    between atoms: _499  and  _500
REMARK  204  A    between atoms: _499  and  _502
REMARK  205  A    between atoms: _502  and  _503
REMARK  206  A    between atoms: _503  and  _504
REMARK  207  A    between atoms: _506  and  _508
REMARK  208  A    between atoms: _508  and  _509
REMARK  209  A    between atoms: _508  and  _511
REMARK  210  A    between atoms: _511  and  _512
REMARK  211  A    between atoms: _517  and  _518
REMARK  212  A    between atoms: _520  and  _522
REMARK  213  A    between atoms: _522  and  _523
REMARK  214  A    between atoms: _527  and  _528
REMARK  215  A    between atoms: _533  and  _535
REMARK  216  A    between atoms: _535  and  _536
REMARK  217  A    between atoms: _535  and  _538
REMARK  218  A    between atoms: _538  and  _539
REMARK  219  A    between atoms: _542  and  _544
REMARK  220  A    between atoms: _544  and  _545
REMARK  221  A    between atoms: _544  and  _547
REMARK  222  A    between atoms: _547  and  _548
REMARK  223  A    between atoms: _558  and  _560
REMARK  224  A    between atoms: _560  and  _561
REMARK  225  A    between atoms: _560  and  _563
REMARK  226  A    between atoms: _563  and  _564
REMARK  227  A    between atoms: _567  and  _569
REMARK  228  A    between atoms: _569  and  _570
REMARK  229  A    between atoms: _569  and  _572
REMARK  230  A    between atoms: _574  and  _576
REMARK  231  A    between atoms: _576  and  _577
REMARK  232  A    between atoms: _576  and  _579
REMARK  233  A    between atoms: _579  and  _580
REMARK  234  A    between atoms: _580  and  _581
REMARK  235  A    between atoms: _586  and  _588
REMARK  236  A    between atoms: _588  and  _589
REMARK  237  A    between atoms: _588  and  _591
REMARK  238  A    between atoms: _591  and  _592
REMARK  239  A    between atoms: _595  and  _597
REMARK  240  A    between atoms: _597  and  _598
REMARK  241  A    between atoms: _597  and  _600
REMARK  242  A    between atoms: _600  and  _601
REMARK  243  A    between atoms: _606  and  _607
REMARK  244  A    between atoms: _609  and  _611
REMARK  245  A    between atoms: _611  and  _612
REMARK  246  A    between atoms: _614  and  _616
REMARK  247  A    between atoms: _616  and  _617
REMARK  248  A    between atoms: _620  and  _622
REMARK  249  A    between atoms: _622  and  _623
REMARK  250  A    between atoms: _622  and  _625
REMARK  251  A    between atoms: _627  and  _629
REMARK  252  A    between atoms: _629  and  _630
REMARK  253  A    between atoms: _629  and  _632
REMARK  254  A    between atoms: _632  and  _633
REMARK  255  A    between atoms: _638  and  _639
REMARK  256  A    between atoms: _641  and  _643
REMARK  257  A    between atoms: _643  and  _644
REMARK  258  A    between atoms: _643  and  _646
REMARK  259  A    between atoms: _646  and  _647
REMARK  260  A    between atoms: _650  and  _652
REMARK  261  A    between atoms: _652  and  _653
REMARK  262  A    between atoms: _652  and  _655
REMARK  263  A    between atoms: _655  and  _656
REMARK  264  A    between atoms: _661  and  _663
REMARK  265  A    between atoms: _663  and  _664
REMARK  266  A    between atoms: _663  and  _666
REMARK  267  A    between atoms: _666  and  _667
REMARK  268  A    between atoms: _673  and  _675
REMARK  269  A    between atoms: _675  and  _676
REMARK  270  A    between atoms: _679  and  _681
REMARK  271  A    between atoms: _681  and  _682
REMARK  272  A    between atoms: _684  and  _686
REMARK  273  A    between atoms: _686  and  _687
REMARK  274  A    between atoms: _686  and  _689
REMARK  275  A    between atoms: _689  and  _690
REMARK  276  A    between atoms: _695  and  _696
REMARK  277  A    between atoms: _698  and  _700
REMARK  278  A    between atoms: _700  and  _701
REMARK  279  A    between atoms: _700  and  _703
REMARK  280  A    between atoms: _703  and  _704
REMARK  281  A    between atoms: _706  and  _708
REMARK  282  A    between atoms: _708  and  _709
REMARK  283  A    between atoms: _711  and  _713
REMARK  284  A    between atoms: _713  and  _714
REMARK                            x       y       z     vdW  Elec       q    Type
REMARK                         _______ _______ _______ _____ _____    ______ ____
ROOT
ATOM      1  O   HOH     1      29.618  10.396  43.883  0.00  0.00    +0.000 OA
ENDROOT
TORSDOF 0
REMARK  Name = ../refined-set-2016/3gnw/3gnw_pocket.pdb
REMARK  284 active torsions:
REMARK  status: ('A' for Active; 'I' for Inactive)
REMARK    1  A    between atoms: _1  and  _3
REMARK    2  A    between atoms: _3  and  _4
REMARK    3  A    between atoms: _3  and  _6
REMARK    4  A    between atoms: _6  and  _7
REMARK    5  A    between atoms: _7  and  _8
REMARK    6  A    between atoms: _8  and  _9
REMARK    7  A    between atoms: _9  and  _10
REMARK    8  A    between atoms: _14  and  _16
REMARK    9  A    between atoms: _16  and  _17
REMARK   10  A    between atoms: _16  and  _19
REMARK   11  A    between atoms: _19  and  _20
REMARK   12  A    between atoms: _20  and  _21
REMARK   13  A    between atoms: _24  and  _26
REMARK   14  A    between atoms: _26  and  _27
REMARK   15  A    between atoms: _26  and  _29
REMARK   16  A    between atoms: _29  and  _30
REMARK   17  A    between atoms: _36  and  _38
REMARK   18  A    between atoms: _38  and  _39
REMARK   19  A    between atoms: _38  and  _41
REMARK   20  A    between atoms: _41  and  _42
REMARK   21  A    between atoms: _42  and  _43
REMARK   22  A    between atoms: _43  and  _44
REMARK   23  A    between atoms: _53  and  _55
REMARK   24  A    between atoms: _55  and  _56
REMARK   25  A    between atoms: _55  and  _58
REMARK   26  A    between atoms: _58  and  _59
REMARK   27  A    between atoms: _62  and  _64
REMARK   28  A    between atoms: _64  and  _65
REMARK   29  A    between atoms: _67  and  _69
REMARK   30  A    between atoms: _69  and  _70
REMARK   31  A    between atoms: _69  and  _72
REMARK   32  A    between atoms: _72  and  _73
REMARK   33  A    between atoms: _79  and  _81
REMARK   34  A    between atoms: _81  and  _82
REMARK   35  A    between atoms: _81  and  _84
REMARK   36  A    between atoms: _84  and  _85
REMARK   37  A    between atoms: _90  and  _91
REMARK   38  A    between atoms: _93  and  _95
REMARK   39  A    between atoms: _95  and  _96
REMARK   40  A    between atoms: _95  and  _98
REMARK   41  A    between atoms: _98  and  _99
REMARK   42  A    between atoms: _102  and  _103
REMARK   43  A    between atoms: _108  and  _110
REMARK   44  A    between atoms: _110  and  _111
REMARK   45  A    between atoms: _110  and  _113
REMARK   46  A    between atoms: _113  and  _114
REMARK   47  A    between atoms: _114  and  _115
REMARK   48  A    between atoms: _115  and  _116
REMARK   49  A    between atoms: _116  and  _117
REMARK   50  A    between atoms: _121  and  _123
REMARK   51  A    between atoms: _123  and  _124
REMARK   52  A    between atoms: _123  and  _126
REMARK   53  A    between atoms: _126  and  _127
REMARK   54  A    between atoms: _127  and  _128
REMARK   55  A    between atoms: _133  and  _135
REMARK   56  A    between atoms: _135  and  _136
REMARK   57  A    between atoms: _135  and  _138
REMARK   58  A    between atoms: _138  and  _139
REMARK   59  A    between atoms: _139  and  _140
REMARK   60  A    between atoms: _140  and  _141
REMARK   61  A    between atoms: _150  and  _152
REMARK   62  A    between atoms: _152  and  _153
REMARK   63  A    between atoms: _152  and  _155
REMARK   64  A    between atoms: _158  and  _160
REMARK   65  A    between atoms: _160  and  _161
REMARK   66  A    between atoms: _160  and  _163
REMARK   67  A    between atoms: _163  and  _164
REMARK   68  A    between atoms: _167  and  _169
REMARK   69  A    between atoms: _169  and  _170
REMARK   70  A    between atoms: _169  and  _172
REMARK   71  A    between atoms: _172  and  _173
REMARK   72  A    between atoms: _179  and  _181
REMARK   73  A    between atoms: _181  and  _182
REMARK   74  A    between atoms: _181  and  _184
REMARK   75  A    between atoms: _184  and  _185
REMARK   76  A    between atoms: _188  and  _190
REMARK   77  A    between atoms: _190  and  _191
REMARK   78  A    between atoms: _190  and  _193
REMARK   79  A    between atoms: _193  and  _194
REMARK   80  A    between atoms: _196  and  _198
REMARK   81  A    between atoms: _198  and  _199
REMARK   82  A    between atoms: _198  and  _201
REMARK   83  A    between atoms: _201  and  _202
REMARK   84  A    between atoms: _205  and  _207
REMARK   85  A    between atoms: _207  and  _208
REMARK   86  A    between atoms: _207  and  _210
REMARK   87  A    between atoms: _210  and  _211
REMARK   88  A    between atoms: _213  and  _215
REMARK   89  A    between atoms: _215  and  _216
REMARK   90  A    between atoms: _215  and  _218
REMARK   91  A    between atoms: _218  and  _219
REMARK   92  A    between atoms: _224  and  _226
REMARK   93  A    between atoms: _226  and  _227
REMARK   94  A    between atoms: _226  and  _229
REMARK   95  A    between atoms: _229  and  _230
REMARK   96  A    between atoms: _233  and  _235
REMARK   97  A    between atoms: _235  and  _236
REMARK   98  A    between atoms: _235  and  _238
REMARK   99  A    between atoms: _238  and  _239
REMARK  100  A    between atoms: _244  and  _246
REMARK  101  A    between atoms: _246  and  _247
REMARK  102  A    between atoms: _249  and  _251
REMARK  103  A    between atoms: _251  and  _252
REMARK  104  A    between atoms: _251  and  _254
REMARK  105  A    between atoms: _254  and  _255
REMARK  106  A    between atoms: _258  and  _260
REMARK  107  A    between atoms: _260  and  _261
REMARK  108  A    between atoms: _260  and  _263
REMARK  109  A    between atoms: _263  and  _264
REMARK  110  A    between atoms: _267  and  _269
REMARK  111  A    between atoms: _269  and  _270
REMARK  112  A    between atoms: _269  and  _272
REMARK  113  A    between atoms: _272  and  _273
REMARK  114  A    between atoms: _276  and  _278
REMARK  115  A    between atoms: _278  and  _279
REMARK  116  A    between atoms: _278  and  _281
REMARK  117  A    between atoms: _281  and  _282
REMARK  118  A    between atoms: _284  and  _286
REMARK  119  A    between atoms: _286  and  _287
REMARK  120  A    between atoms: _286  and  _289
REMARK  121  A    between atoms: _291  and  _293
REMARK  122  A    between atoms: _293  and  _294
REMARK  123  A    between atoms: _293  and  _296
REMARK  124  A    between atoms: _296  and  _297
REMARK  125  A    between atoms: _299  and  _301
REMARK  126  A    between atoms: _301  and  _302
REMARK  127  A    between atoms: _301  and  _304
REMARK  128  A    between atoms: _304  and  _305
REMARK  129  A    between atoms: _307  and  _309
REMARK  130  A    between atoms: _309  and  _310
REMARK  131  A    between atoms: _309  and  _312
REMARK  132  A    between atoms: _312  and  _313
REMARK  133  A    between atoms: _318  and  _320
REMARK  134  A    between atoms: _320  and  _321
REMARK  135  A    between atoms: _320  and  _323
REMARK  136  A    between atoms: _323  and  _324
REMARK  137  A    between atoms: _329  and  _330
REMARK  138  A    between atoms: _332  and  _334
REMARK  139  A    between atoms: _334  and  _335
REMARK  140  A    between atoms: _334  and  _337
REMARK  141  A    between atoms: _337  and  _338
REMARK  142  A    between atoms: _341  and  _343
REMARK  143  A    between atoms: _343  and  _344
REMARK  144  A    between atoms: _343  and  _346
REMARK  145  A    between atoms: _346  and  _347
REMARK  146  A    between atoms: _350  and  _352
REMARK  147  A    between atoms: _352  and  _353
REMARK  148  A    between atoms: _352  and  _355
REMARK  149  A    between atoms: _355  and  _356
REMARK  150  A    between atoms: _356  and  _357
REMARK  151  A    between atoms: _357  and  _358
REMARK  152  A    between atoms: _367  and  _369
REMARK  153  A    between atoms: _369  and  _370
REMARK  154  A    between atoms: _369  and  _372
REMARK  155  A    between atoms: _372  and  _373
REMARK  156  A    between atoms: _377  and  _378
REMARK  157  A    between atoms: _383  and  _385
REMARK  158  A    between atoms: _385  and  _386
REMARK  159  A    between atoms: _385  and  _388
REMARK  160  A    between atoms: _388  and  _389
REMARK  161  A    between atoms: _389  and  _390
REMARK  162  A    between atoms: _390  and  _391
REMARK  163  A    between atoms: _400  and  _402
REMARK  164  A    between atoms: _402  and  _403
REMARK  165  A    between atoms: _402  and  _405
REMARK  166  A    between atoms: _405  and  _406
REMARK  167  A    between atoms: _406  and  _407
REMARK  168  A    between atoms: _410  and  _412
REMARK  169  A    between atoms: _412  and  _413
REMARK  170  A    between atoms: _412  and  _415
REMARK  171  A    between atoms: _415  and  _416
REMARK  172  A    between atoms: _419  and  _421
REMARK  173  A    between atoms: _421  and  _422
REMARK  174  A    between atoms: _421  and  _424
REMARK  175  A    between atoms: _424  and  _425
REMARK  176  A    between atoms: _430  and  _432
REMARK  177  A    between atoms: _432  and  _433
REMARK  178  A    between atoms: _432  and  _435
REMARK  179  A    between atoms: _435  and  _436
REMARK  180  A    between atoms: _438  and  _440
REMARK  181  A    between atoms: _440  and  _441
REMARK  182  A    between atoms: _440  and  _443
REMARK  183  A    between atoms: _443  and  _444
REMARK  184  A    between atoms: _454  and  _456
REMARK  185  A    between atoms: _456  and  _457
REMARK  186  A    between atoms: _456  and  _459
REMARK  187  A    between atoms: _459  and  _460
REMARK  188  A    between atoms: _463  and  _465
REMARK  189  A    between atoms: _465  and  _466
REMARK  190  A    between atoms: _468  and  _470
REMARK  191  A    between atoms: _470  and  _471
REMARK  192  A    between atoms: _470  and  _473
REMARK  193  A    between atoms: _473  and  _474
REMARK  194  A    between atoms: _479  and  _481
REMARK  195  A    between atoms: _481  and  _482
REMARK  196  A    between atoms: _481  and  _484
REMARK  197  A    between atoms: _484  and  _485
REMARK  198  A    between atoms: _488  and  _490
REMARK  199  A    between atoms: _490  and  _491
REMARK  200  A    between atoms: _490  and  _493
REMARK  201  A    between atoms: _493  and  _494
REMARK  202  A    between atoms: _497  and  _499
REMARK  203  A    between atoms: _499  and  _500
REMARK  204  A    between atoms: _499  and  _502
REMARK  205  A    between atoms: _502  and  _503
REMARK  206  A    between atoms: _503  and  _504
REMARK  207  A    between atoms: _506  and  _508
REMARK  208  A    between atoms: _508  and  _509
REMARK  209  A    between atoms: _508  and  _511
REMARK  210  A    between atoms: _511  and  _512
REMARK  211  A    between atoms: _517  and  _518
REMARK  212  A    between atoms: _520  and  _522
REMARK  213  A    between atoms: _522  and  _523
REMARK  214  A    between atoms: _527  and  _528
REMARK  215  A    between atoms: _533  and  _535
REMARK  216  A    between atoms: _535  and  _536
REMARK  217  A    between atoms: _535  and  _538
REMARK  218  A    between atoms: _538  and  _539
REMARK  219  A    between atoms: _542  and  _544
REMARK  220  A    between atoms: _544  and  _545
REMARK  221  A    between atoms: _544  and  _547
REMARK  222  A    between atoms: _547  and  _548
REMARK  223  A    between atoms: _558  and  _560
REMARK  224  A    between atoms: _560  and  _561
REMARK  225  A    between atoms: _560  and  _563
REMARK  226  A    between atoms: _563  and  _564
REMARK  227  A    between atoms: _567  and  _569
REMARK  228  A    between atoms: _569  and  _570
REMARK  229  A    between atoms: _569  and  _572
REMARK  230  A    between atoms: _574  and  _576
REMARK  231  A    between atoms: _576  and  _577
REMARK  232  A    between atoms: _576  and  _579
REMARK  233  A    between atoms: _579  and  _580
REMARK  234  A    between atoms: _580  and  _581
REMARK  235  A    between atoms: _586  and  _588
REMARK  236  A    between atoms: _588  and  _589
REMARK  237  A    between atoms: _588  and  _591
REMARK  238  A    between atoms: _591  and  _592
REMARK  239  A    between atoms: _595  and  _597
REMARK  240  A    between atoms: _597  and  _598
REMARK  241  A    between atoms: _597  and  _600
REMARK  242  A    between atoms: _600  and  _601
REMARK  243  A    between atoms: _606  and  _607
REMARK  244  A    between atoms: _609  and  _611
REMARK  245  A    between atoms: _611  and  _612
REMARK  246  A    between atoms: _614  and  _616
REMARK  247  A    between atoms: _616  and  _617
REMARK  248  A    between atoms: _620  and  _622
REMARK  249  A    between atoms: _622  and  _623
REMARK  250  A    between atoms: _622  and  _625
REMARK  251  A    between atoms: _627  and  _629
REMARK  252  A    between atoms: _629  and  _630
REMARK  253  A    between atoms: _629  and  _632
REMARK  254  A    between atoms: _632  and  _633
REMARK  255  A    between atoms: _638  and  _639
REMARK  256  A    between atoms: _641  and  _643
REMARK  257  A    between atoms: _643  and  _644
REMARK  258  A    between atoms: _643  and  _646
REMARK  259  A    between atoms: _646  and  _647
REMARK  260  A    between atoms: _650  and  _652
REMARK  261  A    between atoms: _652  and  _653
REMARK  262  A    between atoms: _652  and  _655
REMARK  263  A    between atoms: _655  and  _656
REMARK  264  A    between atoms: _661  and  _663
REMARK  265  A    between atoms: _663  and  _664
REMARK  266  A    between atoms: _663  and  _666
REMARK  267  A    between atoms: _666  and  _667
REMARK  268  A    between atoms: _673  and  _675
REMARK  269  A    between atoms: _675  and  _676
REMARK  270  A    between atoms: _679  and  _681
REMARK  271  A    between atoms: _681  and  _682
REMARK  272  A    between atoms: _684  and  _686
REMARK  273  A    between atoms: _686  and  _687
REMARK  274  A    between atoms: _686  and  _689
REMARK  275  A    between atoms: _689  and  _690
REMARK  276  A    between atoms: _695  and  _696
REMARK  277  A    between atoms: _698  and  _700
REMARK  278  A    between atoms: _700  and  _701
REMARK  279  A    between atoms: _700  and  _703
REMARK  280  A    between atoms: _703  and  _704
REMARK  281  A    between atoms: _706  and  _708
REMARK  282  A    between atoms: _708  and  _709
REMARK  283  A    between atoms: _711  and  _713
REMARK  284  A    between atoms: _713  and  _714
REMARK                            x       y       z     vdW  Elec       q    Type
REMARK                         _______ _______ _______ _____ _____    ______ ____
ROOT
ATOM      1  O   HOH     1      33.260   1.679  34.909  0.00  0.00    +0.000 OA
ENDROOT
TORSDOF 0
REMARK  Name = ../refined-set-2016/3gnw/3gnw_pocket.pdb
REMARK  284 active torsions:
REMARK  status: ('A' for Active; 'I' for Inactive)
REMARK    1  A    between atoms: _1  and  _3
REMARK    2  A    between atoms: _3  and  _4
REMARK    3  A    between atoms: _3  and  _6
REMARK    4  A    between atoms: _6  and  _7
REMARK    5  A    between atoms: _7  and  _8
REMARK    6  A    between atoms: _8  and  _9
REMARK    7  A    between atoms: _9  and  _10
REMARK    8  A    between atoms: _14  and  _16
REMARK    9  A    between atoms: _16  and  _17
REMARK   10  A    between atoms: _16  and  _19
REMARK   11  A    between atoms: _19  and  _20
REMARK   12  A    between atoms: _20  and  _21
REMARK   13  A    between atoms: _24  and  _26
REMARK   14  A    between atoms: _26  and  _27
REMARK   15  A    between atoms: _26  and  _29
REMARK   16  A    between atoms: _29  and  _30
REMARK   17  A    between atoms: _36  and  _38
REMARK   18  A    between atoms: _38  and  _39
REMARK   19  A    between atoms: _38  and  _41
REMARK   20  A    between atoms: _41  and  _42
REMARK   21  A    between atoms: _42  and  _43
REMARK   22  A    between atoms: _43  and  _44
REMARK   23  A    between atoms: _53  and  _55
REMARK   24  A    between atoms: _55  and  _56
REMARK   25  A    between atoms: _55  and  _58
REMARK   26  A    between atoms: _58  and  _59
REMARK   27  A    between atoms: _62  and  _64
REMARK   28  A    between atoms: _64  and  _65
REMARK   29  A    between atoms: _67  and  _69
REMARK   30  A    between atoms: _69  and  _70
REMARK   31  A    between atoms: _69  and  _72
REMARK   32  A    between atoms: _72  and  _73
REMARK   33  A    between atoms: _79  and  _81
REMARK   34  A    between atoms: _81  and  _82
REMARK   35  A    between atoms: _81  and  _84
REMARK   36  A    between atoms: _84  and  _85
REMARK   37  A    between atoms: _90  and  _91
REMARK   38  A    between atoms: _93  and  _95
REMARK   39  A    between atoms: _95  and  _96
REMARK   40  A    between atoms: _95  and  _98
REMARK   41  A    between atoms: _98  and  _99
REMARK   42  A    between atoms: _102  and  _103
REMARK   43  A    between atoms: _108  and  _110
REMARK   44  A    between atoms: _110  and  _111
REMARK   45  A    between atoms: _110  and  _113
REMARK   46  A    between atoms: _113  and  _114
REMARK   47  A    between atoms: _114  and  _115
REMARK   48  A    between atoms: _115  and  _116
REMARK   49  A    between atoms: _116  and  _117
REMARK   50  A    between atoms: _121  and  _123
REMARK   51  A    between atoms: _123  and  _124
REMARK   52  A    between atoms: _123  and  _126
REMARK   53  A    between atoms: _126  and  _127
REMARK   54  A    between atoms: _127  and  _128
REMARK   55  A    between atoms: _133  and  _135
REMARK   56  A    between atoms: _135  and  _136
REMARK   57  A    between atoms: _135  and  _138
REMARK   58  A    between atoms: _138  and  _139
REMARK   59  A    between atoms: _139  and  _140
REMARK   60  A    between atoms: _140  and  _141
REMARK   61  A    between atoms: _150  and  _152
REMARK   62  A    between atoms: _152  and  _153
REMARK   63  A    between atoms: _152  and  _155
REMARK   64  A    between atoms: _158  and  _160
REMARK   65  A    between atoms: _160  and  _161
REMARK   66  A    between atoms: _160  and  _163
REMARK   67  A    between atoms: _163  and  _164
REMARK   68  A    between atoms: _167  and  _169
REMARK   69  A    between atoms: _169  and  _170
REMARK   70  A    between atoms: _169  and  _172
REMARK   71  A    between atoms: _172  and  _173
REMARK   72  A    between atoms: _179  and  _181
REMARK   73  A    between atoms: _181  and  _182
REMARK   74  A    between atoms: _181  and  _184
REMARK   75  A    between atoms: _184  and  _185
REMARK   76  A    between atoms: _188  and  _190
REMARK   77  A    between atoms: _190  and  _191
REMARK   78  A    between atoms: _190  and  _193
REMARK   79  A    between atoms: _193  and  _194
REMARK   80  A    between atoms: _196  and  _198
REMARK   81  A    between atoms: _198  and  _199
REMARK   82  A    between atoms: _198  and  _201
REMARK   83  A    between atoms: _201  and  _202
REMARK   84  A    between atoms: _205  and  _207
REMARK   85  A    between atoms: _207  and  _208
REMARK   86  A    between atoms: _207  and  _210
REMARK   87  A    between atoms: _210  and  _211
REMARK   88  A    between atoms: _213  and  _215
REMARK   89  A    between atoms: _215  and  _216
REMARK   90  A    between atoms: _215  and  _218
REMARK   91  A    between atoms: _218  and  _219
REMARK   92  A    between atoms: _224  and  _226
REMARK   93  A    between atoms: _226  and  _227
REMARK   94  A    between atoms: _226  and  _229
REMARK   95  A    between atoms: _229  and  _230
REMARK   96  A    between atoms: _233  and  _235
REMARK   97  A    between atoms: _235  and  _236
REMARK   98  A    between atoms: _235  and  _238
REMARK   99  A    between atoms: _238  and  _239
REMARK  100  A    between atoms: _244  and  _246
REMARK  101  A    between atoms: _246  and  _247
REMARK  102  A    between atoms: _249  and  _251
REMARK  103  A    between atoms: _251  and  _252
REMARK  104  A    between atoms: _251  and  _254
REMARK  105  A    between atoms: _254  and  _255
REMARK  106  A    between atoms: _258  and  _260
REMARK  107  A    between atoms: _260  and  _261
REMARK  108  A    between atoms: _260  and  _263
REMARK  109  A    between atoms: _263  and  _264
REMARK  110  A    between atoms: _267  and  _269
REMARK  111  A    between atoms: _269  and  _270
REMARK  112  A    between atoms: _269  and  _272
REMARK  113  A    between atoms: _272  and  _273
REMARK  114  A    between atoms: _276  and  _278
REMARK  115  A    between atoms: _278  and  _279
REMARK  116  A    between atoms: _278  and  _281
REMARK  117  A    between atoms: _281  and  _282
REMARK  118  A    between atoms: _284  and  _286
REMARK  119  A    between atoms: _286  and  _287
REMARK  120  A    between atoms: _286  and  _289
REMARK  121  A    between atoms: _291  and  _293
REMARK  122  A    between atoms: _293  and  _294
REMARK  123  A    between atoms: _293  and  _296
REMARK  124  A    between atoms: _296  and  _297
REMARK  125  A    between atoms: _299  and  _301
REMARK  126  A    between atoms: _301  and  _302
REMARK  127  A    between atoms: _301  and  _304
REMARK  128  A    between atoms: _304  and  _305
REMARK  129  A    between atoms: _307  and  _309
REMARK  130  A    between atoms: _309  and  _310
REMARK  131  A    between atoms: _309  and  _312
REMARK  132  A    between atoms: _312  and  _313
REMARK  133  A    between atoms: _318  and  _320
REMARK  134  A    between atoms: _320  and  _321
REMARK  135  A    between atoms: _320  and  _323
REMARK  136  A    between atoms: _323  and  _324
REMARK  137  A    between atoms: _329  and  _330
REMARK  138  A    between atoms: _332  and  _334
REMARK  139  A    between atoms: _334  and  _335
REMARK  140  A    between atoms: _334  and  _337
REMARK  141  A    between atoms: _337  and  _338
REMARK  142  A    between atoms: _341  and  _343
REMARK  143  A    between atoms: _343  and  _344
REMARK  144  A    between atoms: _343  and  _346
REMARK  145  A    between atoms: _346  and  _347
REMARK  146  A    between atoms: _350  and  _352
REMARK  147  A    between atoms: _352  and  _353
REMARK  148  A    between atoms: _352  and  _355
REMARK  149  A    between atoms: _355  and  _356
REMARK  150  A    between atoms: _356  and  _357
REMARK  151  A    between atoms: _357  and  _358
REMARK  152  A    between atoms: _367  and  _369
REMARK  153  A    between atoms: _369  and  _370
REMARK  154  A    between atoms: _369  and  _372
REMARK  155  A    between atoms: _372  and  _373
REMARK  156  A    between atoms: _377  and  _378
REMARK  157  A    between atoms: _383  and  _385
REMARK  158  A    between atoms: _385  and  _386
REMARK  159  A    between atoms: _385  and  _388
REMARK  160  A    between atoms: _388  and  _389
REMARK  161  A    between atoms: _389  and  _390
REMARK  162  A    between atoms: _390  and  _391
REMARK  163  A    between atoms: _400  and  _402
REMARK  164  A    between atoms: _402  and  _403
REMARK  165  A    between atoms: _402  and  _405
REMARK  166  A    between atoms: _405  and  _406
REMARK  167  A    between atoms: _406  and  _407
REMARK  168  A    between atoms: _410  and  _412
REMARK  169  A    between atoms: _412  and  _413
REMARK  170  A    between atoms: _412  and  _415
REMARK  171  A    between atoms: _415  and  _416
REMARK  172  A    between atoms: _419  and  _421
REMARK  173  A    between atoms: _421  and  _422
REMARK  174  A    between atoms: _421  and  _424
REMARK  175  A    between atoms: _424  and  _425
REMARK  176  A    between atoms: _430  and  _432
REMARK  177  A    between atoms: _432  and  _433
REMARK  178  A    between atoms: _432  and  _435
REMARK  179  A    between atoms: _435  and  _436
REMARK  180  A    between atoms: _438  and  _440
REMARK  181  A    between atoms: _440  and  _441
REMARK  182  A    between atoms: _440  and  _443
REMARK  183  A    between atoms: _443  and  _444
REMARK  184  A    between atoms: _454  and  _456
REMARK  185  A    between atoms: _456  and  _457
REMARK  186  A    between atoms: _456  and  _459
REMARK  187  A    between atoms: _459  and  _460
REMARK  188  A    between atoms: _463  and  _465
REMARK  189  A    between atoms: _465  and  _466
REMARK  190  A    between atoms: _468  and  _470
REMARK  191  A    between atoms: _470  and  _471
REMARK  192  A    between atoms: _470  and  _473
REMARK  193  A    between atoms: _473  and  _474
REMARK  194  A    between atoms: _479  and  _481
REMARK  195  A    between atoms: _481  and  _482
REMARK  196  A    between atoms: _481  and  _484
REMARK  197  A    between atoms: _484  and  _485
REMARK  198  A    between atoms: _488  and  _490
REMARK  199  A    between atoms: _490  and  _491
REMARK  200  A    between atoms: _490  and  _493
REMARK  201  A    between atoms: _493  and  _494
REMARK  202  A    between atoms: _497  and  _499
REMARK  203  A    between atoms: _499  and  _500
REMARK  204  A    between atoms: _499  and  _502
REMARK  205  A    between atoms: _502  and  _503
REMARK  206  A    between atoms: _503  and  _504
REMARK  207  A    between atoms: _506  and  _508
REMARK  208  A    between atoms: _508  and  _509
REMARK  209  A    between atoms: _508  and  _511
REMARK  210  A    between atoms: _511  and  _512
REMARK  211  A    between atoms: _517  and  _518
REMARK  212  A    between atoms: _520  and  _522
REMARK  213  A    between atoms: _522  and  _523
REMARK  214  A    between atoms: _527  and  _528
REMARK  215  A    between atoms: _533  and  _535
REMARK  216  A    between atoms: _535  and  _536
REMARK  217  A    between atoms: _535  and  _538
REMARK  218  A    between atoms: _538  and  _539
REMARK  219  A    between atoms: _542  and  _544
REMARK  220  A    between atoms: _544  and  _545
REMARK  221  A    between atoms: _544  and  _547
REMARK  222  A    between atoms: _547  and  _548
REMARK  223  A    between atoms: _558  and  _560
REMARK  224  A    between atoms: _560  and  _561
REMARK  225  A    between atoms: _560  and  _563
REMARK  226  A    between atoms: _563  and  _564
REMARK  227  A    between atoms: _567  and  _569
REMARK  228  A    between atoms: _569  and  _570
REMARK  229  A    between atoms: _569  and  _572
REMARK  230  A    between atoms: _574  and  _576
REMARK  231  A    between atoms: _576  and  _577
REMARK  232  A    between atoms: _576  and  _579
REMARK  233  A    between atoms: _579  and  _580
REMARK  234  A    between atoms: _580  and  _581
REMARK  235  A    between atoms: _586  and  _588
REMARK  236  A    between atoms: _588  and  _589
REMARK  237  A    between atoms: _588  and  _591
REMARK  238  A    between atoms: _591  and  _592
REMARK  239  A    between atoms: _595  and  _597
REMARK  240  A    between atoms: _597  and  _598
REMARK  241  A    between atoms: _597  and  _600
REMARK  242  A    between atoms: _600  and  _601
REMARK  243  A    between atoms: _606  and  _607
REMARK  244  A    between atoms: _609  and  _611
REMARK  245  A    between atoms: _611  and  _612
REMARK  246  A    between atoms: _614  and  _616
REMARK  247  A    between atoms: _616  and  _617
REMARK  248  A    between atoms: _620  and  _622
REMARK  249  A    between atoms: _622  and  _623
REMARK  250  A    between atoms: _622  and  _625
REMARK  251  A    between atoms: _627  and  _629
REMARK  252  A    between atoms: _629  and  _630
REMARK  253  A    between atoms: _629  and  _632
REMARK  254  A    between atoms: _632  and  _633
REMARK  255  A    between atoms: _638  and  _639
REMARK  256  A    between atoms: _641  and  _643
REMARK  257  A    between atoms: _643  and  _644
REMARK  258  A    between atoms: _643  and  _646
REMARK  259  A    between atoms: _646  and  _647
REMARK  260  A    between atoms: _650  and  _652
REMARK  261  A    between atoms: _652  and  _653
REMARK  262  A    between atoms: _652  and  _655
REMARK  263  A    between atoms: _655  and  _656
REMARK  264  A    between atoms: _661  and  _663
REMARK  265  A    between atoms: _663  and  _664
REMARK  266  A    between atoms: _663  and  _666
REMARK  267  A    between atoms: _666  and  _667
REMARK  268  A    between atoms: _673  and  _675
REMARK  269  A    between atoms: _675  and  _676
REMARK  270  A    between atoms: _679  and  _681
REMARK  271  A    between atoms: _681  and  _682
REMARK  272  A    between atoms: _684  and  _686
REMARK  273  A    between atoms: _686  and  _687
REMARK  274  A    between atoms: _686  and  _689
REMARK  275  A    between atoms: _689  and  _690
REMARK  276  A    between atoms: _695  and  _696
REMARK  277  A    between atoms: _698  and  _700
REMARK  278  A    between atoms: _700  and  _701
REMARK  279  A    between atoms: _700  and  _703
REMARK  280  A    between atoms: _703  and  _704
REMARK  281  A    between atoms: _706  and  _708
REMARK  282  A    between atoms: _708  and  _709
REMARK  283  A    between atoms: _711  and  _713
REMARK  284  A    between atoms: _713  and  _714
REMARK                            x       y       z     vdW  Elec       q    Type
REMARK                         _______ _______ _______ _____ _____    ______ ____
ROOT
ATOM      1  O   HOH     1      26.132  -2.805  30.961  0.00  0.00    +0.000 OA
ENDROOT
TORSDOF 0
REMARK  Name = ../refined-set-2016/3gnw/3gnw_pocket.pdb
REMARK  284 active torsions:
REMARK  status: ('A' for Active; 'I' for Inactive)
REMARK    1  A    between atoms: _1  and  _3
REMARK    2  A    between atoms: _3  and  _4
REMARK    3  A    between atoms: _3  and  _6
REMARK    4  A    between atoms: _6  and  _7
REMARK    5  A    between atoms: _7  and  _8
REMARK    6  A    between atoms: _8  and  _9
REMARK    7  A    between atoms: _9  and  _10
REMARK    8  A    between atoms: _14  and  _16
REMARK    9  A    between atoms: _16  and  _17
REMARK   10  A    between atoms: _16  and  _19
REMARK   11  A    between atoms: _19  and  _20
REMARK   12  A    between atoms: _20  and  _21
REMARK   13  A    between atoms: _24  and  _26
REMARK   14  A    between atoms: _26  and  _27
REMARK   15  A    between atoms: _26  and  _29
REMARK   16  A    between atoms: _29  and  _30
REMARK   17  A    between atoms: _36  and  _38
REMARK   18  A    between atoms: _38  and  _39
REMARK   19  A    between atoms: _38  and  _41
REMARK   20  A    between atoms: _41  and  _42
REMARK   21  A    between atoms: _42  and  _43
REMARK   22  A    between atoms: _43  and  _44
REMARK   23  A    between atoms: _53  and  _55
REMARK   24  A    between atoms: _55  and  _56
REMARK   25  A    between atoms: _55  and  _58
REMARK   26  A    between atoms: _58  and  _59
REMARK   27  A    between atoms: _62  and  _64
REMARK   28  A    between atoms: _64  and  _65
REMARK   29  A    between atoms: _67  and  _69
REMARK   30  A    between atoms: _69  and  _70
REMARK   31  A    between atoms: _69  and  _72
REMARK   32  A    between atoms: _72  and  _73
REMARK   33  A    between atoms: _79  and  _81
REMARK   34  A    between atoms: _81  and  _82
REMARK   35  A    between atoms: _81  and  _84
REMARK   36  A    between atoms: _84  and  _85
REMARK   37  A    between atoms: _90  and  _91
REMARK   38  A    between atoms: _93  and  _95
REMARK   39  A    between atoms: _95  and  _96
REMARK   40  A    between atoms: _95  and  _98
REMARK   41  A    between atoms: _98  and  _99
REMARK   42  A    between atoms: _102  and  _103
REMARK   43  A    between atoms: _108  and  _110
REMARK   44  A    between atoms: _110  and  _111
REMARK   45  A    between atoms: _110  and  _113
REMARK   46  A    between atoms: _113  and  _114
REMARK   47  A    between atoms: _114  and  _115
REMARK   48  A    between atoms: _115  and  _116
REMARK   49  A    between atoms: _116  and  _117
REMARK   50  A    between atoms: _121  and  _123
REMARK   51  A    between atoms: _123  and  _124
REMARK   52  A    between atoms: _123  and  _126
REMARK   53  A    between atoms: _126  and  _127
REMARK   54  A    between atoms: _127  and  _128
REMARK   55  A    between atoms: _133  and  _135
REMARK   56  A    between atoms: _135  and  _136
REMARK   57  A    between atoms: _135  and  _138
REMARK   58  A    between atoms: _138  and  _139
REMARK   59  A    between atoms: _139  and  _140
REMARK   60  A    between atoms: _140  and  _141
REMARK   61  A    between atoms: _150  and  _152
REMARK   62  A    between atoms: _152  and  _153
REMARK   63  A    between atoms: _152  and  _155
REMARK   64  A    between atoms: _158  and  _160
REMARK   65  A    between atoms: _160  and  _161
REMARK   66  A    between atoms: _160  and  _163
REMARK   67  A    between atoms: _163  and  _164
REMARK   68  A    between atoms: _167  and  _169
REMARK   69  A    between atoms: _169  and  _170
REMARK   70  A    between atoms: _169  and  _172
REMARK   71  A    between atoms: _172  and  _173
REMARK   72  A    between atoms: _179  and  _181
REMARK   73  A    between atoms: _181  and  _182
REMARK   74  A    between atoms: _181  and  _184
REMARK   75  A    between atoms: _184  and  _185
REMARK   76  A    between atoms: _188  and  _190
REMARK   77  A    between atoms: _190  and  _191
REMARK   78  A    between atoms: _190  and  _193
REMARK   79  A    between atoms: _193  and  _194
REMARK   80  A    between atoms: _196  and  _198
REMARK   81  A    between atoms: _198  and  _199
REMARK   82  A    between atoms: _198  and  _201
REMARK   83  A    between atoms: _201  and  _202
REMARK   84  A    between atoms: _205  and  _207
REMARK   85  A    between atoms: _207  and  _208
REMARK   86  A    between atoms: _207  and  _210
REMARK   87  A    between atoms: _210  and  _211
REMARK   88  A    between atoms: _213  and  _215
REMARK   89  A    between atoms: _215  and  _216
REMARK   90  A    between atoms: _215  and  _218
REMARK   91  A    between atoms: _218  and  _219
REMARK   92  A    between atoms: _224  and  _226
REMARK   93  A    between atoms: _226  and  _227
REMARK   94  A    between atoms: _226  and  _229
REMARK   95  A    between atoms: _229  and  _230
REMARK   96  A    between atoms: _233  and  _235
REMARK   97  A    between atoms: _235  and  _236
REMARK   98  A    between atoms: _235  and  _238
REMARK   99  A    between atoms: _238  and  _239
REMARK  100  A    between atoms: _244  and  _246
REMARK  101  A    between atoms: _246  and  _247
REMARK  102  A    between atoms: _249  and  _251
REMARK  103  A    between atoms: _251  and  _252
REMARK  104  A    between atoms: _251  and  _254
REMARK  105  A    between atoms: _254  and  _255
REMARK  106  A    between atoms: _258  and  _260
REMARK  107  A    between atoms: _260  and  _261
REMARK  108  A    between atoms: _260  and  _263
REMARK  109  A    between atoms: _263  and  _264
REMARK  110  A    between atoms: _267  and  _269
REMARK  111  A    between atoms: _269  and  _270
REMARK  112  A    between atoms: _269  and  _272
REMARK  113  A    between atoms: _272  and  _273
REMARK  114  A    between atoms: _276  and  _278
REMARK  115  A    between atoms: _278  and  _279
REMARK  116  A    between atoms: _278  and  _281
REMARK  117  A    between atoms: _281  and  _282
REMARK  118  A    between atoms: _284  and  _286
REMARK  119  A    between atoms: _286  and  _287
REMARK  120  A    between atoms: _286  and  _289
REMARK  121  A    between atoms: _291  and  _293
REMARK  122  A    between atoms: _293  and  _294
REMARK  123  A    between atoms: _293  and  _296
REMARK  124  A    between atoms: _296  and  _297
REMARK  125  A    between atoms: _299  and  _301
REMARK  126  A    between atoms: _301  and  _302
REMARK  127  A    between atoms: _301  and  _304
REMARK  128  A    between atoms: _304  and  _305
REMARK  129  A    between atoms: _307  and  _309
REMARK  130  A    between atoms: _309  and  _310
REMARK  131  A    between atoms: _309  and  _312
REMARK  132  A    between atoms: _312  and  _313
REMARK  133  A    between atoms: _318  and  _320
REMARK  134  A    between atoms: _320  and  _321
REMARK  135  A    between atoms: _320  and  _323
REMARK  136  A    between atoms: _323  and  _324
REMARK  137  A    between atoms: _329  and  _330
REMARK  138  A    between atoms: _332  and  _334
REMARK  139  A    between atoms: _334  and  _335
REMARK  140  A    between atoms: _334  and  _337
REMARK  141  A    between atoms: _337  and  _338
REMARK  142  A    between atoms: _341  and  _343
REMARK  143  A    between atoms: _343  and  _344
REMARK  144  A    between atoms: _343  and  _346
REMARK  145  A    between atoms: _346  and  _347
REMARK  146  A    between atoms: _350  and  _352
REMARK  147  A    between atoms: _352  and  _353
REMARK  148  A    between atoms: _352  and  _355
REMARK  149  A    between atoms: _355  and  _356
REMARK  150  A    between atoms: _356  and  _357
REMARK  151  A    between atoms: _357  and  _358
REMARK  152  A    between atoms: _367  and  _369
REMARK  153  A    between atoms: _369  and  _370
REMARK  154  A    between atoms: _369  and  _372
REMARK  155  A    between atoms: _372  and  _373
REMARK  156  A    between atoms: _377  and  _378
REMARK  157  A    between atoms: _383  and  _385
REMARK  158  A    between atoms: _385  and  _386
REMARK  159  A    between atoms: _385  and  _388
REMARK  160  A    between atoms: _388  and  _389
REMARK  161  A    between atoms: _389  and  _390
REMARK  162  A    between atoms: _390  and  _391
REMARK  163  A    between atoms: _400  and  _402
REMARK  164  A    between atoms: _402  and  _403
REMARK  165  A    between atoms: _402  and  _405
REMARK  166  A    between atoms: _405  and  _406
REMARK  167  A    between atoms: _406  and  _407
REMARK  168  A    between atoms: _410  and  _412
REMARK  169  A    between atoms: _412  and  _413
REMARK  170  A    between atoms: _412  and  _415
REMARK  171  A    between atoms: _415  and  _416
REMARK  172  A    between atoms: _419  and  _421
REMARK  173  A    between atoms: _421  and  _422
REMARK  174  A    between atoms: _421  and  _424
REMARK  175  A    between atoms: _424  and  _425
REMARK  176  A    between atoms: _430  and  _432
REMARK  177  A    between atoms: _432  and  _433
REMARK  178  A    between atoms: _432  and  _435
REMARK  179  A    between atoms: _435  and  _436
REMARK  180  A    between atoms: _438  and  _440
REMARK  181  A    between atoms: _440  and  _441
REMARK  182  A    between atoms: _440  and  _443
REMARK  183  A    between atoms: _443  and  _444
REMARK  184  A    between atoms: _454  and  _456
REMARK  185  A    between atoms: _456  and  _457
REMARK  186  A    between atoms: _456  and  _459
REMARK  187  A    between atoms: _459  and  _460
REMARK  188  A    between atoms: _463  and  _465
REMARK  189  A    between atoms: _465  and  _466
REMARK  190  A    between atoms: _468  and  _470
REMARK  191  A    between atoms: _470  and  _471
REMARK  192  A    between atoms: _470  and  _473
REMARK  193  A    between atoms: _473  and  _474
REMARK  194  A    between atoms: _479  and  _481
REMARK  195  A    between atoms: _481  and  _482
REMARK  196  A    between atoms: _481  and  _484
REMARK  197  A    between atoms: _484  and  _485
REMARK  198  A    between atoms: _488  and  _490
REMARK  199  A    between atoms: _490  and  _491
REMARK  200  A    between atoms: _490  and  _493
REMARK  201  A    between atoms: _493  and  _494
REMARK  202  A    between atoms: _497  and  _499
REMARK  203  A    between atoms: _499  and  _500
REMARK  204  A    between atoms: _499  and  _502
REMARK  205  A    between atoms: _502  and  _503
REMARK  206  A    between atoms: _503  and  _504
REMARK  207  A    between atoms: _506  and  _508
REMARK  208  A    between atoms: _508  and  _509
REMARK  209  A    between atoms: _508  and  _511
REMARK  210  A    between atoms: _511  and  _512
REMARK  211  A    between atoms: _517  and  _518
REMARK  212  A    between atoms: _520  and  _522
REMARK  213  A    between atoms: _522  and  _523
REMARK  214  A    between atoms: _527  and  _528
REMARK  215  A    between atoms: _533  and  _535
REMARK  216  A    between atoms: _535  and  _536
REMARK  217  A    between atoms: _535  and  _538
REMARK  218  A    between atoms: _538  and  _539
REMARK  219  A    between atoms: _542  and  _544
REMARK  220  A    between atoms: _544  and  _545
REMARK  221  A    between atoms: _544  and  _547
REMARK  222  A    between atoms: _547  and  _548
REMARK  223  A    between atoms: _558  and  _560
REMARK  224  A    between atoms: _560  and  _561
REMARK  225  A    between atoms: _560  and  _563
REMARK  226  A    between atoms: _563  and  _564
REMARK  227  A    between atoms: _567  and  _569
REMARK  228  A    between atoms: _569  and  _570
REMARK  229  A    between atoms: _569  and  _572
REMARK  230  A    between atoms: _574  and  _576
REMARK  231  A    between atoms: _576  and  _577
REMARK  232  A    between atoms: _576  and  _579
REMARK  233  A    between atoms: _579  and  _580
REMARK  234  A    between atoms: _580  and  _581
REMARK  235  A    between atoms: _586  and  _588
REMARK  236  A    between atoms: _588  and  _589
REMARK  237  A    between atoms: _588  and  _591
REMARK  238  A    between atoms: _591  and  _592
REMARK  239  A    between atoms: _595  and  _597
REMARK  240  A    between atoms: _597  and  _598
REMARK  241  A    between atoms: _597  and  _600
REMARK  242  A    between atoms: _600  and  _601
REMARK  243  A    between atoms: _606  and  _607
REMARK  244  A    between atoms: _609  and  _611
REMARK  245  A    between atoms: _611  and  _612
REMARK  246  A    between atoms: _614  and  _616
REMARK  247  A    between atoms: _616  and  _617
REMARK  248  A    between atoms: _620  and  _622
REMARK  249  A    between atoms: _622  and  _623
REMARK  250  A    between atoms: _622  and  _625
REMARK  251  A    between atoms: _627  and  _629
REMARK  252  A    between atoms: _629  and  _630
REMARK  253  A    between atoms: _629  and  _632
REMARK  254  A    between atoms: _632  and  _633
REMARK  255  A    between atoms: _638  and  _639
REMARK  256  A    between atoms: _641  and  _643
REMARK  257  A    between atoms: _643  and  _644
REMARK  258  A    between atoms: _643  and  _646
REMARK  259  A    between atoms: _646  and  _647
REMARK  260  A    between atoms: _650  and  _652
REMARK  261  A    between atoms: _652  and  _653
REMARK  262  A    between atoms: _652  and  _655
REMARK  263  A    between atoms: _655  and  _656
REMARK  264  A    between atoms: _661  and  _663
REMARK  265  A    between atoms: _663  and  _664
REMARK  266  A    between atoms: _663  and  _666
REMARK  267  A    between atoms: _666  and  _667
REMARK  268  A    between atoms: _673  and  _675
REMARK  269  A    between atoms: _675  and  _676
REMARK  270  A    between atoms: _679  and  _681
REMARK  271  A    between atoms: _681  and  _682
REMARK  272  A    between atoms: _684  and  _686
REMARK  273  A    between atoms: _686  and  _687
REMARK  274  A    between atoms: _686  and  _689
REMARK  275  A    between atoms: _689  and  _690
REMARK  276  A    between atoms: _695  and  _696
REMARK  277  A    between atoms: _698  and  _700
REMARK  278  A    between atoms: _700  and  _701
REMARK  279  A    between atoms: _700  and  _703
REMARK  280  A    between atoms: _703  and  _704
REMARK  281  A    between atoms: _706  and  _708
REMARK  282  A    between atoms: _708  and  _709
REMARK  283  A    between atoms: _711  and  _713
REMARK  284  A    between atoms: _713  and  _714
REMARK                            x       y       z     vdW  Elec       q    Type
REMARK                         _______ _______ _______ _____ _____    ______ ____
ROOT
ATOM      1  O   HOH     1      35.806   4.719  29.115  0.00  0.00    +0.000 OA
ENDROOT
TORSDOF 0
REMARK  Name = ../refined-set-2016/3gnw/3gnw_pocket.pdb
REMARK  284 active torsions:
REMARK  status: ('A' for Active; 'I' for Inactive)
REMARK    1  A    between atoms: _1  and  _3
REMARK    2  A    between atoms: _3  and  _4
REMARK    3  A    between atoms: _3  and  _6
REMARK    4  A    between atoms: _6  and  _7
REMARK    5  A    between atoms: _7  and  _8
REMARK    6  A    between atoms: _8  and  _9
REMARK    7  A    between atoms: _9  and  _10
REMARK    8  A    between atoms: _14  and  _16
REMARK    9  A    between atoms: _16  and  _17
REMARK   10  A    between atoms: _16  and  _19
REMARK   11  A    between atoms: _19  and  _20
REMARK   12  A    between atoms: _20  and  _21
REMARK   13  A    between atoms: _24  and  _26
REMARK   14  A    between atoms: _26  and  _27
REMARK   15  A    between atoms: _26  and  _29
REMARK   16  A    between atoms: _29  and  _30
REMARK   17  A    between atoms: _36  and  _38
REMARK   18  A    between atoms: _38  and  _39
REMARK   19  A    between atoms: _38  and  _41
REMARK   20  A    between atoms: _41  and  _42
REMARK   21  A    between atoms: _42  and  _43
REMARK   22  A    between atoms: _43  and  _44
REMARK   23  A    between atoms: _53  and  _55
REMARK   24  A    between atoms: _55  and  _56
REMARK   25  A    between atoms: _55  and  _58
REMARK   26  A    between atoms: _58  and  _59
REMARK   27  A    between atoms: _62  and  _64
REMARK   28  A    between atoms: _64  and  _65
REMARK   29  A    between atoms: _67  and  _69
REMARK   30  A    between atoms: _69  and  _70
REMARK   31  A    between atoms: _69  and  _72
REMARK   32  A    between atoms: _72  and  _73
REMARK   33  A    between atoms: _79  and  _81
REMARK   34  A    between atoms: _81  and  _82
REMARK   35  A    between atoms: _81  and  _84
REMARK   36  A    between atoms: _84  and  _85
REMARK   37  A    between atoms: _90  and  _91
REMARK   38  A    between atoms: _93  and  _95
REMARK   39  A    between atoms: _95  and  _96
REMARK   40  A    between atoms: _95  and  _98
REMARK   41  A    between atoms: _98  and  _99
REMARK   42  A    between atoms: _102  and  _103
REMARK   43  A    between atoms: _108  and  _110
REMARK   44  A    between atoms: _110  and  _111
REMARK   45  A    between atoms: _110  and  _113
REMARK   46  A    between atoms: _113  and  _114
REMARK   47  A    between atoms: _114  and  _115
REMARK   48  A    between atoms: _115  and  _116
REMARK   49  A    between atoms: _116  and  _117
REMARK   50  A    between atoms: _121  and  _123
REMARK   51  A    between atoms: _123  and  _124
REMARK   52  A    between atoms: _123  and  _126
REMARK   53  A    between atoms: _126  and  _127
REMARK   54  A    between atoms: _127  and  _128
REMARK   55  A    between atoms: _133  and  _135
REMARK   56  A    between atoms: _135  and  _136
REMARK   57  A    between atoms: _135  and  _138
REMARK   58  A    between atoms: _138  and  _139
REMARK   59  A    between atoms: _139  and  _140
REMARK   60  A    between atoms: _140  and  _141
REMARK   61  A    between atoms: _150  and  _152
REMARK   62  A    between atoms: _152  and  _153
REMARK   63  A    between atoms: _152  and  _155
REMARK   64  A    between atoms: _158  and  _160
REMARK   65  A    between atoms: _160  and  _161
REMARK   66  A    between atoms: _160  and  _163
REMARK   67  A    between atoms: _163  and  _164
REMARK   68  A    between atoms: _167  and  _169
REMARK   69  A    between atoms: _169  and  _170
REMARK   70  A    between atoms: _169  and  _172
REMARK   71  A    between atoms: _172  and  _173
REMARK   72  A    between atoms: _179  and  _181
REMARK   73  A    between atoms: _181  and  _182
REMARK   74  A    between atoms: _181  and  _184
REMARK   75  A    between atoms: _184  and  _185
REMARK   76  A    between atoms: _188  and  _190
REMARK   77  A    between atoms: _190  and  _191
REMARK   78  A    between atoms: _190  and  _193
REMARK   79  A    between atoms: _193  and  _194
REMARK   80  A    between atoms: _196  and  _198
REMARK   81  A    between atoms: _198  and  _199
REMARK   82  A    between atoms: _198  and  _201
REMARK   83  A    between atoms: _201  and  _202
REMARK   84  A    between atoms: _205  and  _207
REMARK   85  A    between atoms: _207  and  _208
REMARK   86  A    between atoms: _207  and  _210
REMARK   87  A    between atoms: _210  and  _211
REMARK   88  A    between atoms: _213  and  _215
REMARK   89  A    between atoms: _215  and  _216
REMARK   90  A    between atoms: _215  and  _218
REMARK   91  A    between atoms: _218  and  _219
REMARK   92  A    between atoms: _224  and  _226
REMARK   93  A    between atoms: _226  and  _227
REMARK   94  A    between atoms: _226  and  _229
REMARK   95  A    between atoms: _229  and  _230
REMARK   96  A    between atoms: _233  and  _235
REMARK   97  A    between atoms: _235  and  _236
REMARK   98  A    between atoms: _235  and  _238
REMARK   99  A    between atoms: _238  and  _239
REMARK  100  A    between atoms: _244  and  _246
REMARK  101  A    between atoms: _246  and  _247
REMARK  102  A    between atoms: _249  and  _251
REMARK  103  A    between atoms: _251  and  _252
REMARK  104  A    between atoms: _251  and  _254
REMARK  105  A    between atoms: _254  and  _255
REMARK  106  A    between atoms: _258  and  _260
REMARK  107  A    between atoms: _260  and  _261
REMARK  108  A    between atoms: _260  and  _263
REMARK  109  A    between atoms: _263  and  _264
REMARK  110  A    between atoms: _267  and  _269
REMARK  111  A    between atoms: _269  and  _270
REMARK  112  A    between atoms: _269  and  _272
REMARK  113  A    between atoms: _272  and  _273
REMARK  114  A    between atoms: _276  and  _278
REMARK  115  A    between atoms: _278  and  _279
REMARK  116  A    between atoms: _278  and  _281
REMARK  117  A    between atoms: _281  and  _282
REMARK  118  A    between atoms: _284  and  _286
REMARK  119  A    between atoms: _286  and  _287
REMARK  120  A    between atoms: _286  and  _289
REMARK  121  A    between atoms: _291  and  _293
REMARK  122  A    between atoms: _293  and  _294
REMARK  123  A    between atoms: _293  and  _296
REMARK  124  A    between atoms: _296  and  _297
REMARK  125  A    between atoms: _299  and  _301
REMARK  126  A    between atoms: _301  and  _302
REMARK  127  A    between atoms: _301  and  _304
REMARK  128  A    between atoms: _304  and  _305
REMARK  129  A    between atoms: _307  and  _309
REMARK  130  A    between atoms: _309  and  _310
REMARK  131  A    between atoms: _309  and  _312
REMARK  132  A    between atoms: _312  and  _313
REMARK  133  A    between atoms: _318  and  _320
REMARK  134  A    between atoms: _320  and  _321
REMARK  135  A    between atoms: _320  and  _323
REMARK  136  A    between atoms: _323  and  _324
REMARK  137  A    between atoms: _329  and  _330
REMARK  138  A    between atoms: _332  and  _334
REMARK  139  A    between atoms: _334  and  _335
REMARK  140  A    between atoms: _334  and  _337
REMARK  141  A    between atoms: _337  and  _338
REMARK  142  A    between atoms: _341  and  _343
REMARK  143  A    between atoms: _343  and  _344
REMARK  144  A    between atoms: _343  and  _346
REMARK  145  A    between atoms: _346  and  _347
REMARK  146  A    between atoms: _350  and  _352
REMARK  147  A    between atoms: _352  and  _353
REMARK  148  A    between atoms: _352  and  _355
REMARK  149  A    between atoms: _355  and  _356
REMARK  150  A    between atoms: _356  and  _357
REMARK  151  A    between atoms: _357  and  _358
REMARK  152  A    between atoms: _367  and  _369
REMARK  153  A    between atoms: _369  and  _370
REMARK  154  A    between atoms: _369  and  _372
REMARK  155  A    between atoms: _372  and  _373
REMARK  156  A    between atoms: _377  and  _378
REMARK  157  A    between atoms: _383  and  _385
REMARK  158  A    between atoms: _385  and  _386
REMARK  159  A    between atoms: _385  and  _388
REMARK  160  A    between atoms: _388  and  _389
REMARK  161  A    between atoms: _389  and  _390
REMARK  162  A    between atoms: _390  and  _391
REMARK  163  A    between atoms: _400  and  _402
REMARK  164  A    between atoms: _402  and  _403
REMARK  165  A    between atoms: _402  and  _405
REMARK  166  A    between atoms: _405  and  _406
REMARK  167  A    between atoms: _406  and  _407
REMARK  168  A    between atoms: _410  and  _412
REMARK  169  A    between atoms: _412  and  _413
REMARK  170  A    between atoms: _412  and  _415
REMARK  171  A    between atoms: _415  and  _416
REMARK  172  A    between atoms: _419  and  _421
REMARK  173  A    between atoms: _421  and  _422
REMARK  174  A    between atoms: _421  and  _424
REMARK  175  A    between atoms: _424  and  _425
REMARK  176  A    between atoms: _430  and  _432
REMARK  177  A    between atoms: _432  and  _433
REMARK  178  A    between atoms: _432  and  _435
REMARK  179  A    between atoms: _435  and  _436
REMARK  180  A    between atoms: _438  and  _440
REMARK  181  A    between atoms: _440  and  _441
REMARK  182  A    between atoms: _440  and  _443
REMARK  183  A    between atoms: _443  and  _444
REMARK  184  A    between atoms: _454  and  _456
REMARK  185  A    between atoms: _456  and  _457
REMARK  186  A    between atoms: _456  and  _459
REMARK  187  A    between atoms: _459  and  _460
REMARK  188  A    between atoms: _463  and  _465
REMARK  189  A    between atoms: _465  and  _466
REMARK  190  A    between atoms: _468  and  _470
REMARK  191  A    between atoms: _470  and  _471
REMARK  192  A    between atoms: _470  and  _473
REMARK  193  A    between atoms: _473  and  _474
REMARK  194  A    between atoms: _479  and  _481
REMARK  195  A    between atoms: _481  and  _482
REMARK  196  A    between atoms: _481  and  _484
REMARK  197  A    between atoms: _484  and  _485
REMARK  198  A    between atoms: _488  and  _490
REMARK  199  A    between atoms: _490  and  _491
REMARK  200  A    between atoms: _490  and  _493
REMARK  201  A    between atoms: _493  and  _494
REMARK  202  A    between atoms: _497  and  _499
REMARK  203  A    between atoms: _499  and  _500
REMARK  204  A    between atoms: _499  and  _502
REMARK  205  A    between atoms: _502  and  _503
REMARK  206  A    between atoms: _503  and  _504
REMARK  207  A    between atoms: _506  and  _508
REMARK  208  A    between atoms: _508  and  _509
REMARK  209  A    between atoms: _508  and  _511
REMARK  210  A    between atoms: _511  and  _512
REMARK  211  A    between atoms: _517  and  _518
REMARK  212  A    between atoms: _520  and  _522
REMARK  213  A    between atoms: _522  and  _523
REMARK  214  A    between atoms: _527  and  _528
REMARK  215  A    between atoms: _533  and  _535
REMARK  216  A    between atoms: _535  and  _536
REMARK  217  A    between atoms: _535  and  _538
REMARK  218  A    between atoms: _538  and  _539
REMARK  219  A    between atoms: _542  and  _544
REMARK  220  A    between atoms: _544  and  _545
REMARK  221  A    between atoms: _544  and  _547
REMARK  222  A    between atoms: _547  and  _548
REMARK  223  A    between atoms: _558  and  _560
REMARK  224  A    between atoms: _560  and  _561
REMARK  225  A    between atoms: _560  and  _563
REMARK  226  A    between atoms: _563  and  _564
REMARK  227  A    between atoms: _567  and  _569
REMARK  228  A    between atoms: _569  and  _570
REMARK  229  A    between atoms: _569  and  _572
REMARK  230  A    between atoms: _574  and  _576
REMARK  231  A    between atoms: _576  and  _577
REMARK  232  A    between atoms: _576  and  _579
REMARK  233  A    between atoms: _579  and  _580
REMARK  234  A    between atoms: _580  and  _581
REMARK  235  A    between atoms: _586  and  _588
REMARK  236  A    between atoms: _588  and  _589
REMARK  237  A    between atoms: _588  and  _591
REMARK  238  A    between atoms: _591  and  _592
REMARK  239  A    between atoms: _595  and  _597
REMARK  240  A    between atoms: _597  and  _598
REMARK  241  A    between atoms: _597  and  _600
REMARK  242  A    between atoms: _600  and  _601
REMARK  243  A    between atoms: _606  and  _607
REMARK  244  A    between atoms: _609  and  _611
REMARK  245  A    between atoms: _611  and  _612
REMARK  246  A    between atoms: _614  and  _616
REMARK  247  A    between atoms: _616  and  _617
REMARK  248  A    between atoms: _620  and  _622
REMARK  249  A    between atoms: _622  and  _623
REMARK  250  A    between atoms: _622  and  _625
REMARK  251  A    between atoms: _627  and  _629
REMARK  252  A    between atoms: _629  and  _630
REMARK  253  A    between atoms: _629  and  _632
REMARK  254  A    between atoms: _632  and  _633
REMARK  255  A    between atoms: _638  and  _639
REMARK  256  A    between atoms: _641  and  _643
REMARK  257  A    between atoms: _643  and  _644
REMARK  258  A    between atoms: _643  and  _646
REMARK  259  A    between atoms: _646  and  _647
REMARK  260  A    between atoms: _650  and  _652
REMARK  261  A    between atoms: _652  and  _653
REMARK  262  A    between atoms: _652  and  _655
REMARK  263  A    between atoms: _655  and  _656
REMARK  264  A    between atoms: _661  and  _663
REMARK  265  A    between atoms: _663  and  _664
REMARK  266  A    between atoms: _663  and  _666
REMARK  267  A    between atoms: _666  and  _667
REMARK  268  A    between atoms: _673  and  _675
REMARK  269  A    between atoms: _675  and  _676
REMARK  270  A    between atoms: _679  and  _681
REMARK  271  A    between atoms: _681  and  _682
REMARK  272  A    between atoms: _684  and  _686
REMARK  273  A    between atoms: _686  and  _687
REMARK  274  A    between atoms: _686  and  _689
REMARK  275  A    between atoms: _689  and  _690
REMARK  276  A    between atoms: _695  and  _696
REMARK  277  A    between atoms: _698  and  _700
REMARK  278  A    between atoms: _700  and  _701
REMARK  279  A    between atoms: _700  and  _703
REMARK  280  A    between atoms: _703  and  _704
REMARK  281  A    between atoms: _706  and  _708
REMARK  282  A    between atoms: _708  and  _709
REMARK  283  A    between atoms: _711  and  _713
REMARK  284  A    between atoms: _713  and  _714
REMARK                            x       y       z     vdW  Elec       q    Type
REMARK                         _______ _______ _______ _____ _____    ______ ____
ROOT
ATOM      1  O   HOH     1      27.646  14.778  35.192  0.00  0.00    +0.000 OA
ENDROOT
TORSDOF 0
REMARK  Name = ../refined-set-2016/3gnw/3gnw_pocket.pdb
REMARK  284 active torsions:
REMARK  status: ('A' for Active; 'I' for Inactive)
REMARK    1  A    between atoms: _1  and  _3
REMARK    2  A    between atoms: _3  and  _4
REMARK    3  A    between atoms: _3  and  _6
REMARK    4  A    between atoms: _6  and  _7
REMARK    5  A    between atoms: _7  and  _8
REMARK    6  A    between atoms: _8  and  _9
REMARK    7  A    between atoms: _9  and  _10
REMARK    8  A    between atoms: _14  and  _16
REMARK    9  A    between atoms: _16  and  _17
REMARK   10  A    between atoms: _16  and  _19
REMARK   11  A    between atoms: _19  and  _20
REMARK   12  A    between atoms: _20  and  _21
REMARK   13  A    between atoms: _24  and  _26
REMARK   14  A    between atoms: _26  and  _27
REMARK   15  A    between atoms: _26  and  _29
REMARK   16  A    between atoms: _29  and  _30
REMARK   17  A    between atoms: _36  and  _38
REMARK   18  A    between atoms: _38  and  _39
REMARK   19  A    between atoms: _38  and  _41
REMARK   20  A    between atoms: _41  and  _42
REMARK   21  A    between atoms: _42  and  _43
REMARK   22  A    between atoms: _43  and  _44
REMARK   23  A    between atoms: _53  and  _55
REMARK   24  A    between atoms: _55  and  _56
REMARK   25  A    between atoms: _55  and  _58
REMARK   26  A    between atoms: _58  and  _59
REMARK   27  A    between atoms: _62  and  _64
REMARK   28  A    between atoms: _64  and  _65
REMARK   29  A    between atoms: _67  and  _69
REMARK   30  A    between atoms: _69  and  _70
REMARK   31  A    between atoms: _69  and  _72
REMARK   32  A    between atoms: _72  and  _73
REMARK   33  A    between atoms: _79  and  _81
REMARK   34  A    between atoms: _81  and  _82
REMARK   35  A    between atoms: _81  and  _84
REMARK   36  A    between atoms: _84  and  _85
REMARK   37  A    between atoms: _90  and  _91
REMARK   38  A    between atoms: _93  and  _95
REMARK   39  A    between atoms: _95  and  _96
REMARK   40  A    between atoms: _95  and  _98
REMARK   41  A    between atoms: _98  and  _99
REMARK   42  A    between atoms: _102  and  _103
REMARK   43  A    between atoms: _108  and  _110
REMARK   44  A    between atoms: _110  and  _111
REMARK   45  A    between atoms: _110  and  _113
REMARK   46  A    between atoms: _113  and  _114
REMARK   47  A    between atoms: _114  and  _115
REMARK   48  A    between atoms: _115  and  _116
REMARK   49  A    between atoms: _116  and  _117
REMARK   50  A    between atoms: _121  and  _123
REMARK   51  A    between atoms: _123  and  _124
REMARK   52  A    between atoms: _123  and  _126
REMARK   53  A    between atoms: _126  and  _127
REMARK   54  A    between atoms: _127  and  _128
REMARK   55  A    between atoms: _133  and  _135
REMARK   56  A    between atoms: _135  and  _136
REMARK   57  A    between atoms: _135  and  _138
REMARK   58  A    between atoms: _138  and  _139
REMARK   59  A    between atoms: _139  and  _140
REMARK   60  A    between atoms: _140  and  _141
REMARK   61  A    between atoms: _150  and  _152
REMARK   62  A    between atoms: _152  and  _153
REMARK   63  A    between atoms: _152  and  _155
REMARK   64  A    between atoms: _158  and  _160
REMARK   65  A    between atoms: _160  and  _161
REMARK   66  A    between atoms: _160  and  _163
REMARK   67  A    between atoms: _163  and  _164
REMARK   68  A    between atoms: _167  and  _169
REMARK   69  A    between atoms: _169  and  _170
REMARK   70  A    between atoms: _169  and  _172
REMARK   71  A    between atoms: _172  and  _173
REMARK   72  A    between atoms: _179  and  _181
REMARK   73  A    between atoms: _181  and  _182
REMARK   74  A    between atoms: _181  and  _184
REMARK   75  A    between atoms: _184  and  _185
REMARK   76  A    between atoms: _188  and  _190
REMARK   77  A    between atoms: _190  and  _191
REMARK   78  A    between atoms: _190  and  _193
REMARK   79  A    between atoms: _193  and  _194
REMARK   80  A    between atoms: _196  and  _198
REMARK   81  A    between atoms: _198  and  _199
REMARK   82  A    between atoms: _198  and  _201
REMARK   83  A    between atoms: _201  and  _202
REMARK   84  A    between atoms: _205  and  _207
REMARK   85  A    between atoms: _207  and  _208
REMARK   86  A    between atoms: _207  and  _210
REMARK   87  A    between atoms: _210  and  _211
REMARK   88  A    between atoms: _213  and  _215
REMARK   89  A    between atoms: _215  and  _216
REMARK   90  A    between atoms: _215  and  _218
REMARK   91  A    between atoms: _218  and  _219
REMARK   92  A    between atoms: _224  and  _226
REMARK   93  A    between atoms: _226  and  _227
REMARK   94  A    between atoms: _226  and  _229
REMARK   95  A    between atoms: _229  and  _230
REMARK   96  A    between atoms: _233  and  _235
REMARK   97  A    between atoms: _235  and  _236
REMARK   98  A    between atoms: _235  and  _238
REMARK   99  A    between atoms: _238  and  _239
REMARK  100  A    between atoms: _244  and  _246
REMARK  101  A    between atoms: _246  and  _247
REMARK  102  A    between atoms: _249  and  _251
REMARK  103  A    between atoms: _251  and  _252
REMARK  104  A    between atoms: _251  and  _254
REMARK  105  A    between atoms: _254  and  _255
REMARK  106  A    between atoms: _258  and  _260
REMARK  107  A    between atoms: _260  and  _261
REMARK  108  A    between atoms: _260  and  _263
REMARK  109  A    between atoms: _263  and  _264
REMARK  110  A    between atoms: _267  and  _269
REMARK  111  A    between atoms: _269  and  _270
REMARK  112  A    between atoms: _269  and  _272
REMARK  113  A    between atoms: _272  and  _273
REMARK  114  A    between atoms: _276  and  _278
REMARK  115  A    between atoms: _278  and  _279
REMARK  116  A    between atoms: _278  and  _281
REMARK  117  A    between atoms: _281  and  _282
REMARK  118  A    between atoms: _284  and  _286
REMARK  119  A    between atoms: _286  and  _287
REMARK  120  A    between atoms: _286  and  _289
REMARK  121  A    between atoms: _291  and  _293
REMARK  122  A    between atoms: _293  and  _294
REMARK  123  A    between atoms: _293  and  _296
REMARK  124  A    between atoms: _296  and  _297
REMARK  125  A    between atoms: _299  and  _301
REMARK  126  A    between atoms: _301  and  _302
REMARK  127  A    between atoms: _301  and  _304
REMARK  128  A    between atoms: _304  and  _305
REMARK  129  A    between atoms: _307  and  _309
REMARK  130  A    between atoms: _309  and  _310
REMARK  131  A    between atoms: _309  and  _312
REMARK  132  A    between atoms: _312  and  _313
REMARK  133  A    between atoms: _318  and  _320
REMARK  134  A    between atoms: _320  and  _321
REMARK  135  A    between atoms: _320  and  _323
REMARK  136  A    between atoms: _323  and  _324
REMARK  137  A    between atoms: _329  and  _330
REMARK  138  A    between atoms: _332  and  _334
REMARK  139  A    between atoms: _334  and  _335
REMARK  140  A    between atoms: _334  and  _337
REMARK  141  A    between atoms: _337  and  _338
REMARK  142  A    between atoms: _341  and  _343
REMARK  143  A    between atoms: _343  and  _344
REMARK  144  A    between atoms: _343  and  _346
REMARK  145  A    between atoms: _346  and  _347
REMARK  146  A    between atoms: _350  and  _352
REMARK  147  A    between atoms: _352  and  _353
REMARK  148  A    between atoms: _352  and  _355
REMARK  149  A    between atoms: _355  and  _356
REMARK  150  A    between atoms: _356  and  _357
REMARK  151  A    between atoms: _357  and  _358
REMARK  152  A    between atoms: _367  and  _369
REMARK  153  A    between atoms: _369  and  _370
REMARK  154  A    between atoms: _369  and  _372
REMARK  155  A    between atoms: _372  and  _373
REMARK  156  A    between atoms: _377  and  _378
REMARK  157  A    between atoms: _383  and  _385
REMARK  158  A    between atoms: _385  and  _386
REMARK  159  A    between atoms: _385  and  _388
REMARK  160  A    between atoms: _388  and  _389
REMARK  161  A    between atoms: _389  and  _390
REMARK  162  A    between atoms: _390  and  _391
REMARK  163  A    between atoms: _400  and  _402
REMARK  164  A    between atoms: _402  and  _403
REMARK  165  A    between atoms: _402  and  _405
REMARK  166  A    between atoms: _405  and  _406
REMARK  167  A    between atoms: _406  and  _407
REMARK  168  A    between atoms: _410  and  _412
REMARK  169  A    between atoms: _412  and  _413
REMARK  170  A    between atoms: _412  and  _415
REMARK  171  A    between atoms: _415  and  _416
REMARK  172  A    between atoms: _419  and  _421
REMARK  173  A    between atoms: _421  and  _422
REMARK  174  A    between atoms: _421  and  _424
REMARK  175  A    between atoms: _424  and  _425
REMARK  176  A    between atoms: _430  and  _432
REMARK  177  A    between atoms: _432  and  _433
REMARK  178  A    between atoms: _432  and  _435
REMARK  179  A    between atoms: _435  and  _436
REMARK  180  A    between atoms: _438  and  _440
REMARK  181  A    between atoms: _440  and  _441
REMARK  182  A    between atoms: _440  and  _443
REMARK  183  A    between atoms: _443  and  _444
REMARK  184  A    between atoms: _454  and  _456
REMARK  185  A    between atoms: _456  and  _457
REMARK  186  A    between atoms: _456  and  _459
REMARK  187  A    between atoms: _459  and  _460
REMARK  188  A    between atoms: _463  and  _465
REMARK  189  A    between atoms: _465  and  _466
REMARK  190  A    between atoms: _468  and  _470
REMARK  191  A    between atoms: _470  and  _471
REMARK  192  A    between atoms: _470  and  _473
REMARK  193  A    between atoms: _473  and  _474
REMARK  194  A    between atoms: _479  and  _481
REMARK  195  A    between atoms: _481  and  _482
REMARK  196  A    between atoms: _481  and  _484
REMARK  197  A    between atoms: _484  and  _485
REMARK  198  A    between atoms: _488  and  _490
REMARK  199  A    between atoms: _490  and  _491
REMARK  200  A    between atoms: _490  and  _493
REMARK  201  A    between atoms: _493  and  _494
REMARK  202  A    between atoms: _497  and  _499
REMARK  203  A    between atoms: _499  and  _500
REMARK  204  A    between atoms: _499  and  _502
REMARK  205  A    between atoms: _502  and  _503
REMARK  206  A    between atoms: _503  and  _504
REMARK  207  A    between atoms: _506  and  _508
REMARK  208  A    between atoms: _508  and  _509
REMARK  209  A    between atoms: _508  and  _511
REMARK  210  A    between atoms: _511  and  _512
REMARK  211  A    between atoms: _517  and  _518
REMARK  212  A    between atoms: _520  and  _522
REMARK  213  A    between atoms: _522  and  _523
REMARK  214  A    between atoms: _527  and  _528
REMARK  215  A    between atoms: _533  and  _535
REMARK  216  A    between atoms: _535  and  _536
REMARK  217  A    between atoms: _535  and  _538
REMARK  218  A    between atoms: _538  and  _539
REMARK  219  A    between atoms: _542  and  _544
REMARK  220  A    between atoms: _544  and  _545
REMARK  221  A    between atoms: _544  and  _547
REMARK  222  A    between atoms: _547  and  _548
REMARK  223  A    between atoms: _558  and  _560
REMARK  224  A    between atoms: _560  and  _561
REMARK  225  A    between atoms: _560  and  _563
REMARK  226  A    between atoms: _563  and  _564
REMARK  227  A    between atoms: _567  and  _569
REMARK  228  A    between atoms: _569  and  _570
REMARK  229  A    between atoms: _569  and  _572
REMARK  230  A    between atoms: _574  and  _576
REMARK  231  A    between atoms: _576  and  _577
REMARK  232  A    between atoms: _576  and  _579
REMARK  233  A    between atoms: _579  and  _580
REMARK  234  A    between atoms: _580  and  _581
REMARK  235  A    between atoms: _586  and  _588
REMARK  236  A    between atoms: _588  and  _589
REMARK  237  A    between atoms: _588  and  _591
REMARK  238  A    between atoms: _591  and  _592
REMARK  239  A    between atoms: _595  and  _597
REMARK  240  A    between atoms: _597  and  _598
REMARK  241  A    between atoms: _597  and  _600
REMARK  242  A    between atoms: _600  and  _601
REMARK  243  A    between atoms: _606  and  _607
REMARK  244  A    between atoms: _609  and  _611
REMARK  245  A    between atoms: _611  and  _612
REMARK  246  A    between atoms: _614  and  _616
REMARK  247  A    between atoms: _616  and  _617
REMARK  248  A    between atoms: _620  and  _622
REMARK  249  A    between atoms: _622  and  _623
REMARK  250  A    between atoms: _622  and  _625
REMARK  251  A    between atoms: _627  and  _629
REMARK  252  A    between atoms: _629  and  _630
REMARK  253  A    between atoms: _629  and  _632
REMARK  254  A    between atoms: _632  and  _633
REMARK  255  A    between atoms: _638  and  _639
REMARK  256  A    between atoms: _641  and  _643
REMARK  257  A    between atoms: _643  and  _644
REMARK  258  A    between atoms: _643  and  _646
REMARK  259  A    between atoms: _646  and  _647
REMARK  260  A    between atoms: _650  and  _652
REMARK  261  A    between atoms: _652  and  _653
REMARK  262  A    between atoms: _652  and  _655
REMARK  263  A    between atoms: _655  and  _656
REMARK  264  A    between atoms: _661  and  _663
REMARK  265  A    between atoms: _663  and  _664
REMARK  266  A    between atoms: _663  and  _666
REMARK  267  A    between atoms: _666  and  _667
REMARK  268  A    between atoms: _673  and  _675
REMARK  269  A    between atoms: _675  and  _676
REMARK  270  A    between atoms: _679  and  _681
REMARK  271  A    between atoms: _681  and  _682
REMARK  272  A    between atoms: _684  and  _686
REMARK  273  A    between atoms: _686  and  _687
REMARK  274  A    between atoms: _686  and  _689
REMARK  275  A    between atoms: _689  and  _690
REMARK  276  A    between atoms: _695  and  _696
REMARK  277  A    between atoms: _698  and  _700
REMARK  278  A    between atoms: _700  and  _701
REMARK  279  A    between atoms: _700  and  _703
REMARK  280  A    between atoms: _703  and  _704
REMARK  281  A    between atoms: _706  and  _708
REMARK  282  A    between atoms: _708  and  _709
REMARK  283  A    between atoms: _711  and  _713
REMARK  284  A    between atoms: _713  and  _714
REMARK                            x       y       z     vdW  Elec       q    Type
REMARK                         _______ _______ _______ _____ _____    ______ ____
ROOT
ATOM      1  O   HOH     1      29.209   8.407  46.176  0.00  0.00    +0.000 OA
ENDROOT
TORSDOF 0
REMARK  Name = ../refined-set-2016/3gnw/3gnw_pocket.pdb
REMARK  284 active torsions:
REMARK  status: ('A' for Active; 'I' for Inactive)
REMARK    1  A    between atoms: _1  and  _3
REMARK    2  A    between atoms: _3  and  _4
REMARK    3  A    between atoms: _3  and  _6
REMARK    4  A    between atoms: _6  and  _7
REMARK    5  A    between atoms: _7  and  _8
REMARK    6  A    between atoms: _8  and  _9
REMARK    7  A    between atoms: _9  and  _10
REMARK    8  A    between atoms: _14  and  _16
REMARK    9  A    between atoms: _16  and  _17
REMARK   10  A    between atoms: _16  and  _19
REMARK   11  A    between atoms: _19  and  _20
REMARK   12  A    between atoms: _20  and  _21
REMARK   13  A    between atoms: _24  and  _26
REMARK   14  A    between atoms: _26  and  _27
REMARK   15  A    between atoms: _26  and  _29
REMARK   16  A    between atoms: _29  and  _30
REMARK   17  A    between atoms: _36  and  _38
REMARK   18  A    between atoms: _38  and  _39
REMARK   19  A    between atoms: _38  and  _41
REMARK   20  A    between atoms: _41  and  _42
REMARK   21  A    between atoms: _42  and  _43
REMARK   22  A    between atoms: _43  and  _44
REMARK   23  A    between atoms: _53  and  _55
REMARK   24  A    between atoms: _55  and  _56
REMARK   25  A    between atoms: _55  and  _58
REMARK   26  A    between atoms: _58  and  _59
REMARK   27  A    between atoms: _62  and  _64
REMARK   28  A    between atoms: _64  and  _65
REMARK   29  A    between atoms: _67  and  _69
REMARK   30  A    between atoms: _69  and  _70
REMARK   31  A    between atoms: _69  and  _72
REMARK   32  A    between atoms: _72  and  _73
REMARK   33  A    between atoms: _79  and  _81
REMARK   34  A    between atoms: _81  and  _82
REMARK   35  A    between atoms: _81  and  _84
REMARK   36  A    between atoms: _84  and  _85
REMARK   37  A    between atoms: _90  and  _91
REMARK   38  A    between atoms: _93  and  _95
REMARK   39  A    between atoms: _95  and  _96
REMARK   40  A    between atoms: _95  and  _98
REMARK   41  A    between atoms: _98  and  _99
REMARK   42  A    between atoms: _102  and  _103
REMARK   43  A    between atoms: _108  and  _110
REMARK   44  A    between atoms: _110  and  _111
REMARK   45  A    between atoms: _110  and  _113
REMARK   46  A    between atoms: _113  and  _114
REMARK   47  A    between atoms: _114  and  _115
REMARK   48  A    between atoms: _115  and  _116
REMARK   49  A    between atoms: _116  and  _117
REMARK   50  A    between atoms: _121  and  _123
REMARK   51  A    between atoms: _123  and  _124
REMARK   52  A    between atoms: _123  and  _126
REMARK   53  A    between atoms: _126  and  _127
REMARK   54  A    between atoms: _127  and  _128
REMARK   55  A    between atoms: _133  and  _135
REMARK   56  A    between atoms: _135  and  _136
REMARK   57  A    between atoms: _135  and  _138
REMARK   58  A    between atoms: _138  and  _139
REMARK   59  A    between atoms: _139  and  _140
REMARK   60  A    between atoms: _140  and  _141
REMARK   61  A    between atoms: _150  and  _152
REMARK   62  A    between atoms: _152  and  _153
REMARK   63  A    between atoms: _152  and  _155
REMARK   64  A    between atoms: _158  and  _160
REMARK   65  A    between atoms: _160  and  _161
REMARK   66  A    between atoms: _160  and  _163
REMARK   67  A    between atoms: _163  and  _164
REMARK   68  A    between atoms: _167  and  _169
REMARK   69  A    between atoms: _169  and  _170
REMARK   70  A    between atoms: _169  and  _172
REMARK   71  A    between atoms: _172  and  _173
REMARK   72  A    between atoms: _179  and  _181
REMARK   73  A    between atoms: _181  and  _182
REMARK   74  A    between atoms: _181  and  _184
REMARK   75  A    between atoms: _184  and  _185
REMARK   76  A    between atoms: _188  and  _190
REMARK   77  A    between atoms: _190  and  _191
REMARK   78  A    between atoms: _190  and  _193
REMARK   79  A    between atoms: _193  and  _194
REMARK   80  A    between atoms: _196  and  _198
REMARK   81  A    between atoms: _198  and  _199
REMARK   82  A    between atoms: _198  and  _201
REMARK   83  A    between atoms: _201  and  _202
REMARK   84  A    between atoms: _205  and  _207
REMARK   85  A    between atoms: _207  and  _208
REMARK   86  A    between atoms: _207  and  _210
REMARK   87  A    between atoms: _210  and  _211
REMARK   88  A    between atoms: _213  and  _215
REMARK   89  A    between atoms: _215  and  _216
REMARK   90  A    between atoms: _215  and  _218
REMARK   91  A    between atoms: _218  and  _219
REMARK   92  A    between atoms: _224  and  _226
REMARK   93  A    between atoms: _226  and  _227
REMARK   94  A    between atoms: _226  and  _229
REMARK   95  A    between atoms: _229  and  _230
REMARK   96  A    between atoms: _233  and  _235
REMARK   97  A    between atoms: _235  and  _236
REMARK   98  A    between atoms: _235  and  _238
REMARK   99  A    between atoms: _238  and  _239
REMARK  100  A    between atoms: _244  and  _246
REMARK  101  A    between atoms: _246  and  _247
REMARK  102  A    between atoms: _249  and  _251
REMARK  103  A    between atoms: _251  and  _252
REMARK  104  A    between atoms: _251  and  _254
REMARK  105  A    between atoms: _254  and  _255
REMARK  106  A    between atoms: _258  and  _260
REMARK  107  A    between atoms: _260  and  _261
REMARK  108  A    between atoms: _260  and  _263
REMARK  109  A    between atoms: _263  and  _264
REMARK  110  A    between atoms: _267  and  _269
REMARK  111  A    between atoms: _269  and  _270
REMARK  112  A    between atoms: _269  and  _272
REMARK  113  A    between atoms: _272  and  _273
REMARK  114  A    between atoms: _276  and  _278
REMARK  115  A    between atoms: _278  and  _279
REMARK  116  A    between atoms: _278  and  _281
REMARK  117  A    between atoms: _281  and  _282
REMARK  118  A    between atoms: _284  and  _286
REMARK  119  A    between atoms: _286  and  _287
REMARK  120  A    between atoms: _286  and  _289
REMARK  121  A    between atoms: _291  and  _293
REMARK  122  A    between atoms: _293  and  _294
REMARK  123  A    between atoms: _293  and  _296
REMARK  124  A    between atoms: _296  and  _297
REMARK  125  A    between atoms: _299  and  _301
REMARK  126  A    between atoms: _301  and  _302
REMARK  127  A    between atoms: _301  and  _304
REMARK  128  A    between atoms: _304  and  _305
REMARK  129  A    between atoms: _307  and  _309
REMARK  130  A    between atoms: _309  and  _310
REMARK  131  A    between atoms: _309  and  _312
REMARK  132  A    between atoms: _312  and  _313
REMARK  133  A    between atoms: _318  and  _320
REMARK  134  A    between atoms: _320  and  _321
REMARK  135  A    between atoms: _320  and  _323
REMARK  136  A    between atoms: _323  and  _324
REMARK  137  A    between atoms: _329  and  _330
REMARK  138  A    between atoms: _332  and  _334
REMARK  139  A    between atoms: _334  and  _335
REMARK  140  A    between atoms: _334  and  _337
REMARK  141  A    between atoms: _337  and  _338
REMARK  142  A    between atoms: _341  and  _343
REMARK  143  A    between atoms: _343  and  _344
REMARK  144  A    between atoms: _343  and  _346
REMARK  145  A    between atoms: _346  and  _347
REMARK  146  A    between atoms: _350  and  _352
REMARK  147  A    between atoms: _352  and  _353
REMARK  148  A    between atoms: _352  and  _355
REMARK  149  A    between atoms: _355  and  _356
REMARK  150  A    between atoms: _356  and  _357
REMARK  151  A    between atoms: _357  and  _358
REMARK  152  A    between atoms: _367  and  _369
REMARK  153  A    between atoms: _369  and  _370
REMARK  154  A    between atoms: _369  and  _372
REMARK  155  A    between atoms: _372  and  _373
REMARK  156  A    between atoms: _377  and  _378
REMARK  157  A    between atoms: _383  and  _385
REMARK  158  A    between atoms: _385  and  _386
REMARK  159  A    between atoms: _385  and  _388
REMARK  160  A    between atoms: _388  and  _389
REMARK  161  A    between atoms: _389  and  _390
REMARK  162  A    between atoms: _390  and  _391
REMARK  163  A    between atoms: _400  and  _402
REMARK  164  A    between atoms: _402  and  _403
REMARK  165  A    between atoms: _402  and  _405
REMARK  166  A    between atoms: _405  and  _406
REMARK  167  A    between atoms: _406  and  _407
REMARK  168  A    between atoms: _410  and  _412
REMARK  169  A    between atoms: _412  and  _413
REMARK  170  A    between atoms: _412  and  _415
REMARK  171  A    between atoms: _415  and  _416
REMARK  172  A    between atoms: _419  and  _421
REMARK  173  A    between atoms: _421  and  _422
REMARK  174  A    between atoms: _421  and  _424
REMARK  175  A    between atoms: _424  and  _425
REMARK  176  A    between atoms: _430  and  _432
REMARK  177  A    between atoms: _432  and  _433
REMARK  178  A    between atoms: _432  and  _435
REMARK  179  A    between atoms: _435  and  _436
REMARK  180  A    between atoms: _438  and  _440
REMARK  181  A    between atoms: _440  and  _441
REMARK  182  A    between atoms: _440  and  _443
REMARK  183  A    between atoms: _443  and  _444
REMARK  184  A    between atoms: _454  and  _456
REMARK  185  A    between atoms: _456  and  _457
REMARK  186  A    between atoms: _456  and  _459
REMARK  187  A    between atoms: _459  and  _460
REMARK  188  A    between atoms: _463  and  _465
REMARK  189  A    between atoms: _465  and  _466
REMARK  190  A    between atoms: _468  and  _470
REMARK  191  A    between atoms: _470  and  _471
REMARK  192  A    between atoms: _470  and  _473
REMARK  193  A    between atoms: _473  and  _474
REMARK  194  A    between atoms: _479  and  _481
REMARK  195  A    between atoms: _481  and  _482
REMARK  196  A    between atoms: _481  and  _484
REMARK  197  A    between atoms: _484  and  _485
REMARK  198  A    between atoms: _488  and  _490
REMARK  199  A    between atoms: _490  and  _491
REMARK  200  A    between atoms: _490  and  _493
REMARK  201  A    between atoms: _493  and  _494
REMARK  202  A    between atoms: _497  and  _499
REMARK  203  A    between atoms: _499  and  _500
REMARK  204  A    between atoms: _499  and  _502
REMARK  205  A    between atoms: _502  and  _503
REMARK  206  A    between atoms: _503  and  _504
REMARK  207  A    between atoms: _506  and  _508
REMARK  208  A    between atoms: _508  and  _509
REMARK  209  A    between atoms: _508  and  _511
REMARK  210  A    between atoms: _511  and  _512
REMARK  211  A    between atoms: _517  and  _518
REMARK  212  A    between atoms: _520  and  _522
REMARK  213  A    between atoms: _522  and  _523
REMARK  214  A    between atoms: _527  and  _528
REMARK  215  A    between atoms: _533  and  _535
REMARK  216  A    between atoms: _535  and  _536
REMARK  217  A    between atoms: _535  and  _538
REMARK  218  A    between atoms: _538  and  _539
REMARK  219  A    between atoms: _542  and  _544
REMARK  220  A    between atoms: _544  and  _545
REMARK  221  A    between atoms: _544  and  _547
REMARK  222  A    between atoms: _547  and  _548
REMARK  223  A    between atoms: _558  and  _560
REMARK  224  A    between atoms: _560  and  _561
REMARK  225  A    between atoms: _560  and  _563
REMARK  226  A    between atoms: _563  and  _564
REMARK  227  A    between atoms: _567  and  _569
REMARK  228  A    between atoms: _569  and  _570
REMARK  229  A    between atoms: _569  and  _572
REMARK  230  A    between atoms: _574  and  _576
REMARK  231  A    between atoms: _576  and  _577
REMARK  232  A    between atoms: _576  and  _579
REMARK  233  A    between atoms: _579  and  _580
REMARK  234  A    between atoms: _580  and  _581
REMARK  235  A    between atoms: _586  and  _588
REMARK  236  A    between atoms: _588  and  _589
REMARK  237  A    between atoms: _588  and  _591
REMARK  238  A    between atoms: _591  and  _592
REMARK  239  A    between atoms: _595  and  _597
REMARK  240  A    between atoms: _597  and  _598
REMARK  241  A    between atoms: _597  and  _600
REMARK  242  A    between atoms: _600  and  _601
REMARK  243  A    between atoms: _606  and  _607
REMARK  244  A    between atoms: _609  and  _611
REMARK  245  A    between atoms: _611  and  _612
REMARK  246  A    between atoms: _614  and  _616
REMARK  247  A    between atoms: _616  and  _617
REMARK  248  A    between atoms: _620  and  _622
REMARK  249  A    between atoms: _622  and  _623
REMARK  250  A    between atoms: _622  and  _625
REMARK  251  A    between atoms: _627  and  _629
REMARK  252  A    between atoms: _629  and  _630
REMARK  253  A    between atoms: _629  and  _632
REMARK  254  A    between atoms: _632  and  _633
REMARK  255  A    between atoms: _638  and  _639
REMARK  256  A    between atoms: _641  and  _643
REMARK  257  A    between atoms: _643  and  _644
REMARK  258  A    between atoms: _643  and  _646
REMARK  259  A    between atoms: _646  and  _647
REMARK  260  A    between atoms: _650  and  _652
REMARK  261  A    between atoms: _652  and  _653
REMARK  262  A    between atoms: _652  and  _655
REMARK  263  A    between atoms: _655  and  _656
REMARK  264  A    between atoms: _661  and  _663
REMARK  265  A    between atoms: _663  and  _664
REMARK  266  A    between atoms: _663  and  _666
REMARK  267  A    between atoms: _666  and  _667
REMARK  268  A    between atoms: _673  and  _675
REMARK  269  A    between atoms: _675  and  _676
REMARK  270  A    between atoms: _679  and  _681
REMARK  271  A    between atoms: _681  and  _682
REMARK  272  A    between atoms: _684  and  _686
REMARK  273  A    between atoms: _686  and  _687
REMARK  274  A    between atoms: _686  and  _689
REMARK  275  A    between atoms: _689  and  _690
REMARK  276  A    between atoms: _695  and  _696
REMARK  277  A    between atoms: _698  and  _700
REMARK  278  A    between atoms: _700  and  _701
REMARK  279  A    between atoms: _700  and  _703
REMARK  280  A    between atoms: _703  and  _704
REMARK  281  A    between atoms: _706  and  _708
REMARK  282  A    between atoms: _708  and  _709
REMARK  283  A    between atoms: _711  and  _713
REMARK  284  A    between atoms: _713  and  _714
REMARK                            x       y       z     vdW  Elec       q    Type
REMARK                         _______ _______ _______ _____ _____    ______ ____
ROOT
ATOM      1  O   HOH     1      25.859  12.474  25.517  0.00  0.00    +0.000 OA
ENDROOT
TORSDOF 0
REMARK  Name = ../refined-set-2016/3gnw/3gnw_pocket.pdb
REMARK  284 active torsions:
REMARK  status: ('A' for Active; 'I' for Inactive)
REMARK    1  A    between atoms: _1  and  _3
REMARK    2  A    between atoms: _3  and  _4
REMARK    3  A    between atoms: _3  and  _6
REMARK    4  A    between atoms: _6  and  _7
REMARK    5  A    between atoms: _7  and  _8
REMARK    6  A    between atoms: _8  and  _9
REMARK    7  A    between atoms: _9  and  _10
REMARK    8  A    between atoms: _14  and  _16
REMARK    9  A    between atoms: _16  and  _17
REMARK   10  A    between atoms: _16  and  _19
REMARK   11  A    between atoms: _19  and  _20
REMARK   12  A    between atoms: _20  and  _21
REMARK   13  A    between atoms: _24  and  _26
REMARK   14  A    between atoms: _26  and  _27
REMARK   15  A    between atoms: _26  and  _29
REMARK   16  A    between atoms: _29  and  _30
REMARK   17  A    between atoms: _36  and  _38
REMARK   18  A    between atoms: _38  and  _39
REMARK   19  A    between atoms: _38  and  _41
REMARK   20  A    between atoms: _41  and  _42
REMARK   21  A    between atoms: _42  and  _43
REMARK   22  A    between atoms: _43  and  _44
REMARK   23  A    between atoms: _53  and  _55
REMARK   24  A    between atoms: _55  and  _56
REMARK   25  A    between atoms: _55  and  _58
REMARK   26  A    between atoms: _58  and  _59
REMARK   27  A    between atoms: _62  and  _64
REMARK   28  A    between atoms: _64  and  _65
REMARK   29  A    between atoms: _67  and  _69
REMARK   30  A    between atoms: _69  and  _70
REMARK   31  A    between atoms: _69  and  _72
REMARK   32  A    between atoms: _72  and  _73
REMARK   33  A    between atoms: _79  and  _81
REMARK   34  A    between atoms: _81  and  _82
REMARK   35  A    between atoms: _81  and  _84
REMARK   36  A    between atoms: _84  and  _85
REMARK   37  A    between atoms: _90  and  _91
REMARK   38  A    between atoms: _93  and  _95
REMARK   39  A    between atoms: _95  and  _96
REMARK   40  A    between atoms: _95  and  _98
REMARK   41  A    between atoms: _98  and  _99
REMARK   42  A    between atoms: _102  and  _103
REMARK   43  A    between atoms: _108  and  _110
REMARK   44  A    between atoms: _110  and  _111
REMARK   45  A    between atoms: _110  and  _113
REMARK   46  A    between atoms: _113  and  _114
REMARK   47  A    between atoms: _114  and  _115
REMARK   48  A    between atoms: _115  and  _116
REMARK   49  A    between atoms: _116  and  _117
REMARK   50  A    between atoms: _121  and  _123
REMARK   51  A    between atoms: _123  and  _124
REMARK   52  A    between atoms: _123  and  _126
REMARK   53  A    between atoms: _126  and  _127
REMARK   54  A    between atoms: _127  and  _128
REMARK   55  A    between atoms: _133  and  _135
REMARK   56  A    between atoms: _135  and  _136
REMARK   57  A    between atoms: _135  and  _138
REMARK   58  A    between atoms: _138  and  _139
REMARK   59  A    between atoms: _139  and  _140
REMARK   60  A    between atoms: _140  and  _141
REMARK   61  A    between atoms: _150  and  _152
REMARK   62  A    between atoms: _152  and  _153
REMARK   63  A    between atoms: _152  and  _155
REMARK   64  A    between atoms: _158  and  _160
REMARK   65  A    between atoms: _160  and  _161
REMARK   66  A    between atoms: _160  and  _163
REMARK   67  A    between atoms: _163  and  _164
REMARK   68  A    between atoms: _167  and  _169
REMARK   69  A    between atoms: _169  and  _170
REMARK   70  A    between atoms: _169  and  _172
REMARK   71  A    between atoms: _172  and  _173
REMARK   72  A    between atoms: _179  and  _181
REMARK   73  A    between atoms: _181  and  _182
REMARK   74  A    between atoms: _181  and  _184
REMARK   75  A    between atoms: _184  and  _185
REMARK   76  A    between atoms: _188  and  _190
REMARK   77  A    between atoms: _190  and  _191
REMARK   78  A    between atoms: _190  and  _193
REMARK   79  A    between atoms: _193  and  _194
REMARK   80  A    between atoms: _196  and  _198
REMARK   81  A    between atoms: _198  and  _199
REMARK   82  A    between atoms: _198  and  _201
REMARK   83  A    between atoms: _201  and  _202
REMARK   84  A    between atoms: _205  and  _207
REMARK   85  A    between atoms: _207  and  _208
REMARK   86  A    between atoms: _207  and  _210
REMARK   87  A    between atoms: _210  and  _211
REMARK   88  A    between atoms: _213  and  _215
REMARK   89  A    between atoms: _215  and  _216
REMARK   90  A    between atoms: _215  and  _218
REMARK   91  A    between atoms: _218  and  _219
REMARK   92  A    between atoms: _224  and  _226
REMARK   93  A    between atoms: _226  and  _227
REMARK   94  A    between atoms: _226  and  _229
REMARK   95  A    between atoms: _229  and  _230
REMARK   96  A    between atoms: _233  and  _235
REMARK   97  A    between atoms: _235  and  _236
REMARK   98  A    between atoms: _235  and  _238
REMARK   99  A    between atoms: _238  and  _239
REMARK  100  A    between atoms: _244  and  _246
REMARK  101  A    between atoms: _246  and  _247
REMARK  102  A    between atoms: _249  and  _251
REMARK  103  A    between atoms: _251  and  _252
REMARK  104  A    between atoms: _251  and  _254
REMARK  105  A    between atoms: _254  and  _255
REMARK  106  A    between atoms: _258  and  _260
REMARK  107  A    between atoms: _260  and  _261
REMARK  108  A    between atoms: _260  and  _263
REMARK  109  A    between atoms: _263  and  _264
REMARK  110  A    between atoms: _267  and  _269
REMARK  111  A    between atoms: _269  and  _270
REMARK  112  A    between atoms: _269  and  _272
REMARK  113  A    between atoms: _272  and  _273
REMARK  114  A    between atoms: _276  and  _278
REMARK  115  A    between atoms: _278  and  _279
REMARK  116  A    between atoms: _278  and  _281
REMARK  117  A    between atoms: _281  and  _282
REMARK  118  A    between atoms: _284  and  _286
REMARK  119  A    between atoms: _286  and  _287
REMARK  120  A    between atoms: _286  and  _289
REMARK  121  A    between atoms: _291  and  _293
REMARK  122  A    between atoms: _293  and  _294
REMARK  123  A    between atoms: _293  and  _296
REMARK  124  A    between atoms: _296  and  _297
REMARK  125  A    between atoms: _299  and  _301
REMARK  126  A    between atoms: _301  and  _302
REMARK  127  A    between atoms: _301  and  _304
REMARK  128  A    between atoms: _304  and  _305
REMARK  129  A    between atoms: _307  and  _309
REMARK  130  A    between atoms: _309  and  _310
REMARK  131  A    between atoms: _309  and  _312
REMARK  132  A    between atoms: _312  and  _313
REMARK  133  A    between atoms: _318  and  _320
REMARK  134  A    between atoms: _320  and  _321
REMARK  135  A    between atoms: _320  and  _323
REMARK  136  A    between atoms: _323  and  _324
REMARK  137  A    between atoms: _329  and  _330
REMARK  138  A    between atoms: _332  and  _334
REMARK  139  A    between atoms: _334  and  _335
REMARK  140  A    between atoms: _334  and  _337
REMARK  141  A    between atoms: _337  and  _338
REMARK  142  A    between atoms: _341  and  _343
REMARK  143  A    between atoms: _343  and  _344
REMARK  144  A    between atoms: _343  and  _346
REMARK  145  A    between atoms: _346  and  _347
REMARK  146  A    between atoms: _350  and  _352
REMARK  147  A    between atoms: _352  and  _353
REMARK  148  A    between atoms: _352  and  _355
REMARK  149  A    between atoms: _355  and  _356
REMARK  150  A    between atoms: _356  and  _357
REMARK  151  A    between atoms: _357  and  _358
REMARK  152  A    between atoms: _367  and  _369
REMARK  153  A    between atoms: _369  and  _370
REMARK  154  A    between atoms: _369  and  _372
REMARK  155  A    between atoms: _372  and  _373
REMARK  156  A    between atoms: _377  and  _378
REMARK  157  A    between atoms: _383  and  _385
REMARK  158  A    between atoms: _385  and  _386
REMARK  159  A    between atoms: _385  and  _388
REMARK  160  A    between atoms: _388  and  _389
REMARK  161  A    between atoms: _389  and  _390
REMARK  162  A    between atoms: _390  and  _391
REMARK  163  A    between atoms: _400  and  _402
REMARK  164  A    between atoms: _402  and  _403
REMARK  165  A    between atoms: _402  and  _405
REMARK  166  A    between atoms: _405  and  _406
REMARK  167  A    between atoms: _406  and  _407
REMARK  168  A    between atoms: _410  and  _412
REMARK  169  A    between atoms: _412  and  _413
REMARK  170  A    between atoms: _412  and  _415
REMARK  171  A    between atoms: _415  and  _416
REMARK  172  A    between atoms: _419  and  _421
REMARK  173  A    between atoms: _421  and  _422
REMARK  174  A    between atoms: _421  and  _424
REMARK  175  A    between atoms: _424  and  _425
REMARK  176  A    between atoms: _430  and  _432
REMARK  177  A    between atoms: _432  and  _433
REMARK  178  A    between atoms: _432  and  _435
REMARK  179  A    between atoms: _435  and  _436
REMARK  180  A    between atoms: _438  and  _440
REMARK  181  A    between atoms: _440  and  _441
REMARK  182  A    between atoms: _440  and  _443
REMARK  183  A    between atoms: _443  and  _444
REMARK  184  A    between atoms: _454  and  _456
REMARK  185  A    between atoms: _456  and  _457
REMARK  186  A    between atoms: _456  and  _459
REMARK  187  A    between atoms: _459  and  _460
REMARK  188  A    between atoms: _463  and  _465
REMARK  189  A    between atoms: _465  and  _466
REMARK  190  A    between atoms: _468  and  _470
REMARK  191  A    between atoms: _470  and  _471
REMARK  192  A    between atoms: _470  and  _473
REMARK  193  A    between atoms: _473  and  _474
REMARK  194  A    between atoms: _479  and  _481
REMARK  195  A    between atoms: _481  and  _482
REMARK  196  A    between atoms: _481  and  _484
REMARK  197  A    between atoms: _484  and  _485
REMARK  198  A    between atoms: _488  and  _490
REMARK  199  A    between atoms: _490  and  _491
REMARK  200  A    between atoms: _490  and  _493
REMARK  201  A    between atoms: _493  and  _494
REMARK  202  A    between atoms: _497  and  _499
REMARK  203  A    between atoms: _499  and  _500
REMARK  204  A    between atoms: _499  and  _502
REMARK  205  A    between atoms: _502  and  _503
REMARK  206  A    between atoms: _503  and  _504
REMARK  207  A    between atoms: _506  and  _508
REMARK  208  A    between atoms: _508  and  _509
REMARK  209  A    between atoms: _508  and  _511
REMARK  210  A    between atoms: _511  and  _512
REMARK  211  A    between atoms: _517  and  _518
REMARK  212  A    between atoms: _520  and  _522
REMARK  213  A    between atoms: _522  and  _523
REMARK  214  A    between atoms: _527  and  _528
REMARK  215  A    between atoms: _533  and  _535
REMARK  216  A    between atoms: _535  and  _536
REMARK  217  A    between atoms: _535  and  _538
REMARK  218  A    between atoms: _538  and  _539
REMARK  219  A    between atoms: _542  and  _544
REMARK  220  A    between atoms: _544  and  _545
REMARK  221  A    between atoms: _544  and  _547
REMARK  222  A    between atoms: _547  and  _548
REMARK  223  A    between atoms: _558  and  _560
REMARK  224  A    between atoms: _560  and  _561
REMARK  225  A    between atoms: _560  and  _563
REMARK  226  A    between atoms: _563  and  _564
REMARK  227  A    between atoms: _567  and  _569
REMARK  228  A    between atoms: _569  and  _570
REMARK  229  A    between atoms: _569  and  _572
REMARK  230  A    between atoms: _574  and  _576
REMARK  231  A    between atoms: _576  and  _577
REMARK  232  A    between atoms: _576  and  _579
REMARK  233  A    between atoms: _579  and  _580
REMARK  234  A    between atoms: _580  and  _581
REMARK  235  A    between atoms: _586  and  _588
REMARK  236  A    between atoms: _588  and  _589
REMARK  237  A    between atoms: _588  and  _591
REMARK  238  A    between atoms: _591  and  _592
REMARK  239  A    between atoms: _595  and  _597
REMARK  240  A    between atoms: _597  and  _598
REMARK  241  A    between atoms: _597  and  _600
REMARK  242  A    between atoms: _600  and  _601
REMARK  243  A    between atoms: _606  and  _607
REMARK  244  A    between atoms: _609  and  _611
REMARK  245  A    between atoms: _611  and  _612
REMARK  246  A    between atoms: _614  and  _616
REMARK  247  A    between atoms: _616  and  _617
REMARK  248  A    between atoms: _620  and  _622
REMARK  249  A    between atoms: _622  and  _623
REMARK  250  A    between atoms: _622  and  _625
REMARK  251  A    between atoms: _627  and  _629
REMARK  252  A    between atoms: _629  and  _630
REMARK  253  A    between atoms: _629  and  _632
REMARK  254  A    between atoms: _632  and  _633
REMARK  255  A    between atoms: _638  and  _639
REMARK  256  A    between atoms: _641  and  _643
REMARK  257  A    between atoms: _643  and  _644
REMARK  258  A    between atoms: _643  and  _646
REMARK  259  A    between atoms: _646  and  _647
REMARK  260  A    between atoms: _650  and  _652
REMARK  261  A    between atoms: _652  and  _653
REMARK  262  A    between atoms: _652  and  _655
REMARK  263  A    between atoms: _655  and  _656
REMARK  264  A    between atoms: _661  and  _663
REMARK  265  A    between atoms: _663  and  _664
REMARK  266  A    between atoms: _663  and  _666
REMARK  267  A    between atoms: _666  and  _667
REMARK  268  A    between atoms: _673  and  _675
REMARK  269  A    between atoms: _675  and  _676
REMARK  270  A    between atoms: _679  and  _681
REMARK  271  A    between atoms: _681  and  _682
REMARK  272  A    between atoms: _684  and  _686
REMARK  273  A    between atoms: _686  and  _687
REMARK  274  A    between atoms: _686  and  _689
REMARK  275  A    between atoms: _689  and  _690
REMARK  276  A    between atoms: _695  and  _696
REMARK  277  A    between atoms: _698  and  _700
REMARK  278  A    between atoms: _700  and  _701
REMARK  279  A    between atoms: _700  and  _703
REMARK  280  A    between atoms: _703  and  _704
REMARK  281  A    between atoms: _706  and  _708
REMARK  282  A    between atoms: _708  and  _709
REMARK  283  A    between atoms: _711  and  _713
REMARK  284  A    between atoms: _713  and  _714
REMARK                            x       y       z     vdW  Elec       q    Type
REMARK                         _______ _______ _______ _____ _____    ______ ____
ROOT
ATOM      1  O   HOH     1      32.814   6.012  47.326  0.00  0.00    +0.000 OA
ENDROOT
TORSDOF 0
REMARK  Name = ../refined-set-2016/3gnw/3gnw_pocket.pdb
REMARK  284 active torsions:
REMARK  status: ('A' for Active; 'I' for Inactive)
REMARK    1  A    between atoms: _1  and  _3
REMARK    2  A    between atoms: _3  and  _4
REMARK    3  A    between atoms: _3  and  _6
REMARK    4  A    between atoms: _6  and  _7
REMARK    5  A    between atoms: _7  and  _8
REMARK    6  A    between atoms: _8  and  _9
REMARK    7  A    between atoms: _9  and  _10
REMARK    8  A    between atoms: _14  and  _16
REMARK    9  A    between atoms: _16  and  _17
REMARK   10  A    between atoms: _16  and  _19
REMARK   11  A    between atoms: _19  and  _20
REMARK   12  A    between atoms: _20  and  _21
REMARK   13  A    between atoms: _24  and  _26
REMARK   14  A    between atoms: _26  and  _27
REMARK   15  A    between atoms: _26  and  _29
REMARK   16  A    between atoms: _29  and  _30
REMARK   17  A    between atoms: _36  and  _38
REMARK   18  A    between atoms: _38  and  _39
REMARK   19  A    between atoms: _38  and  _41
REMARK   20  A    between atoms: _41  and  _42
REMARK   21  A    between atoms: _42  and  _43
REMARK   22  A    between atoms: _43  and  _44
REMARK   23  A    between atoms: _53  and  _55
REMARK   24  A    between atoms: _55  and  _56
REMARK   25  A    between atoms: _55  and  _58
REMARK   26  A    between atoms: _58  and  _59
REMARK   27  A    between atoms: _62  and  _64
REMARK   28  A    between atoms: _64  and  _65
REMARK   29  A    between atoms: _67  and  _69
REMARK   30  A    between atoms: _69  and  _70
REMARK   31  A    between atoms: _69  and  _72
REMARK   32  A    between atoms: _72  and  _73
REMARK   33  A    between atoms: _79  and  _81
REMARK   34  A    between atoms: _81  and  _82
REMARK   35  A    between atoms: _81  and  _84
REMARK   36  A    between atoms: _84  and  _85
REMARK   37  A    between atoms: _90  and  _91
REMARK   38  A    between atoms: _93  and  _95
REMARK   39  A    between atoms: _95  and  _96
REMARK   40  A    between atoms: _95  and  _98
REMARK   41  A    between atoms: _98  and  _99
REMARK   42  A    between atoms: _102  and  _103
REMARK   43  A    between atoms: _108  and  _110
REMARK   44  A    between atoms: _110  and  _111
REMARK   45  A    between atoms: _110  and  _113
REMARK   46  A    between atoms: _113  and  _114
REMARK   47  A    between atoms: _114  and  _115
REMARK   48  A    between atoms: _115  and  _116
REMARK   49  A    between atoms: _116  and  _117
REMARK   50  A    between atoms: _121  and  _123
REMARK   51  A    between atoms: _123  and  _124
REMARK   52  A    between atoms: _123  and  _126
REMARK   53  A    between atoms: _126  and  _127
REMARK   54  A    between atoms: _127  and  _128
REMARK   55  A    between atoms: _133  and  _135
REMARK   56  A    between atoms: _135  and  _136
REMARK   57  A    between atoms: _135  and  _138
REMARK   58  A    between atoms: _138  and  _139
REMARK   59  A    between atoms: _139  and  _140
REMARK   60  A    between atoms: _140  and  _141
REMARK   61  A    between atoms: _150  and  _152
REMARK   62  A    between atoms: _152  and  _153
REMARK   63  A    between atoms: _152  and  _155
REMARK   64  A    between atoms: _158  and  _160
REMARK   65  A    between atoms: _160  and  _161
REMARK   66  A    between atoms: _160  and  _163
REMARK   67  A    between atoms: _163  and  _164
REMARK   68  A    between atoms: _167  and  _169
REMARK   69  A    between atoms: _169  and  _170
REMARK   70  A    between atoms: _169  and  _172
REMARK   71  A    between atoms: _172  and  _173
REMARK   72  A    between atoms: _179  and  _181
REMARK   73  A    between atoms: _181  and  _182
REMARK   74  A    between atoms: _181  and  _184
REMARK   75  A    between atoms: _184  and  _185
REMARK   76  A    between atoms: _188  and  _190
REMARK   77  A    between atoms: _190  and  _191
REMARK   78  A    between atoms: _190  and  _193
REMARK   79  A    between atoms: _193  and  _194
REMARK   80  A    between atoms: _196  and  _198
REMARK   81  A    between atoms: _198  and  _199
REMARK   82  A    between atoms: _198  and  _201
REMARK   83  A    between atoms: _201  and  _202
REMARK   84  A    between atoms: _205  and  _207
REMARK   85  A    between atoms: _207  and  _208
REMARK   86  A    between atoms: _207  and  _210
REMARK   87  A    between atoms: _210  and  _211
REMARK   88  A    between atoms: _213  and  _215
REMARK   89  A    between atoms: _215  and  _216
REMARK   90  A    between atoms: _215  and  _218
REMARK   91  A    between atoms: _218  and  _219
REMARK   92  A    between atoms: _224  and  _226
REMARK   93  A    between atoms: _226  and  _227
REMARK   94  A    between atoms: _226  and  _229
REMARK   95  A    between atoms: _229  and  _230
REMARK   96  A    between atoms: _233  and  _235
REMARK   97  A    between atoms: _235  and  _236
REMARK   98  A    between atoms: _235  and  _238
REMARK   99  A    between atoms: _238  and  _239
REMARK  100  A    between atoms: _244  and  _246
REMARK  101  A    between atoms: _246  and  _247
REMARK  102  A    between atoms: _249  and  _251
REMARK  103  A    between atoms: _251  and  _252
REMARK  104  A    between atoms: _251  and  _254
REMARK  105  A    between atoms: _254  and  _255
REMARK  106  A    between atoms: _258  and  _260
REMARK  107  A    between atoms: _260  and  _261
REMARK  108  A    between atoms: _260  and  _263
REMARK  109  A    between atoms: _263  and  _264
REMARK  110  A    between atoms: _267  and  _269
REMARK  111  A    between atoms: _269  and  _270
REMARK  112  A    between atoms: _269  and  _272
REMARK  113  A    between atoms: _272  and  _273
REMARK  114  A    between atoms: _276  and  _278
REMARK  115  A    between atoms: _278  and  _279
REMARK  116  A    between atoms: _278  and  _281
REMARK  117  A    between atoms: _281  and  _282
REMARK  118  A    between atoms: _284  and  _286
REMARK  119  A    between atoms: _286  and  _287
REMARK  120  A    between atoms: _286  and  _289
REMARK  121  A    between atoms: _291  and  _293
REMARK  122  A    between atoms: _293  and  _294
REMARK  123  A    between atoms: _293  and  _296
REMARK  124  A    between atoms: _296  and  _297
REMARK  125  A    between atoms: _299  and  _301
REMARK  126  A    between atoms: _301  and  _302
REMARK  127  A    between atoms: _301  and  _304
REMARK  128  A    between atoms: _304  and  _305
REMARK  129  A    between atoms: _307  and  _309
REMARK  130  A    between atoms: _309  and  _310
REMARK  131  A    between atoms: _309  and  _312
REMARK  132  A    between atoms: _312  and  _313
REMARK  133  A    between atoms: _318  and  _320
REMARK  134  A    between atoms: _320  and  _321
REMARK  135  A    between atoms: _320  and  _323
REMARK  136  A    between atoms: _323  and  _324
REMARK  137  A    between atoms: _329  and  _330
REMARK  138  A    between atoms: _332  and  _334
REMARK  139  A    between atoms: _334  and  _335
REMARK  140  A    between atoms: _334  and  _337
REMARK  141  A    between atoms: _337  and  _338
REMARK  142  A    between atoms: _341  and  _343
REMARK  143  A    between atoms: _343  and  _344
REMARK  144  A    between atoms: _343  and  _346
REMARK  145  A    between atoms: _346  and  _347
REMARK  146  A    between atoms: _350  and  _352
REMARK  147  A    between atoms: _352  and  _353
REMARK  148  A    between atoms: _352  and  _355
REMARK  149  A    between atoms: _355  and  _356
REMARK  150  A    between atoms: _356  and  _357
REMARK  151  A    between atoms: _357  and  _358
REMARK  152  A    between atoms: _367  and  _369
REMARK  153  A    between atoms: _369  and  _370
REMARK  154  A    between atoms: _369  and  _372
REMARK  155  A    between atoms: _372  and  _373
REMARK  156  A    between atoms: _377  and  _378
REMARK  157  A    between atoms: _383  and  _385
REMARK  158  A    between atoms: _385  and  _386
REMARK  159  A    between atoms: _385  and  _388
REMARK  160  A    between atoms: _388  and  _389
REMARK  161  A    between atoms: _389  and  _390
REMARK  162  A    between atoms: _390  and  _391
REMARK  163  A    between atoms: _400  and  _402
REMARK  164  A    between atoms: _402  and  _403
REMARK  165  A    between atoms: _402  and  _405
REMARK  166  A    between atoms: _405  and  _406
REMARK  167  A    between atoms: _406  and  _407
REMARK  168  A    between atoms: _410  and  _412
REMARK  169  A    between atoms: _412  and  _413
REMARK  170  A    between atoms: _412  and  _415
REMARK  171  A    between atoms: _415  and  _416
REMARK  172  A    between atoms: _419  and  _421
REMARK  173  A    between atoms: _421  and  _422
REMARK  174  A    between atoms: _421  and  _424
REMARK  175  A    between atoms: _424  and  _425
REMARK  176  A    between atoms: _430  and  _432
REMARK  177  A    between atoms: _432  and  _433
REMARK  178  A    between atoms: _432  and  _435
REMARK  179  A    between atoms: _435  and  _436
REMARK  180  A    between atoms: _438  and  _440
REMARK  181  A    between atoms: _440  and  _441
REMARK  182  A    between atoms: _440  and  _443
REMARK  183  A    between atoms: _443  and  _444
REMARK  184  A    between atoms: _454  and  _456
REMARK  185  A    between atoms: _456  and  _457
REMARK  186  A    between atoms: _456  and  _459
REMARK  187  A    between atoms: _459  and  _460
REMARK  188  A    between atoms: _463  and  _465
REMARK  189  A    between atoms: _465  and  _466
REMARK  190  A    between atoms: _468  and  _470
REMARK  191  A    between atoms: _470  and  _471
REMARK  192  A    between atoms: _470  and  _473
REMARK  193  A    between atoms: _473  and  _474
REMARK  194  A    between atoms: _479  and  _481
REMARK  195  A    between atoms: _481  and  _482
REMARK  196  A    between atoms: _481  and  _484
REMARK  197  A    between atoms: _484  and  _485
REMARK  198  A    between atoms: _488  and  _490
REMARK  199  A    between atoms: _490  and  _491
REMARK  200  A    between atoms: _490  and  _493
REMARK  201  A    between atoms: _493  and  _494
REMARK  202  A    between atoms: _497  and  _499
REMARK  203  A    between atoms: _499  and  _500
REMARK  204  A    between atoms: _499  and  _502
REMARK  205  A    between atoms: _502  and  _503
REMARK  206  A    between atoms: _503  and  _504
REMARK  207  A    between atoms: _506  and  _508
REMARK  208  A    between atoms: _508  and  _509
REMARK  209  A    between atoms: _508  and  _511
REMARK  210  A    between atoms: _511  and  _512
REMARK  211  A    between atoms: _517  and  _518
REMARK  212  A    between atoms: _520  and  _522
REMARK  213  A    between atoms: _522  and  _523
REMARK  214  A    between atoms: _527  and  _528
REMARK  215  A    between atoms: _533  and  _535
REMARK  216  A    between atoms: _535  and  _536
REMARK  217  A    between atoms: _535  and  _538
REMARK  218  A    between atoms: _538  and  _539
REMARK  219  A    between atoms: _542  and  _544
REMARK  220  A    between atoms: _544  and  _545
REMARK  221  A    between atoms: _544  and  _547
REMARK  222  A    between atoms: _547  and  _548
REMARK  223  A    between atoms: _558  and  _560
REMARK  224  A    between atoms: _560  and  _561
REMARK  225  A    between atoms: _560  and  _563
REMARK  226  A    between atoms: _563  and  _564
REMARK  227  A    between atoms: _567  and  _569
REMARK  228  A    between atoms: _569  and  _570
REMARK  229  A    between atoms: _569  and  _572
REMARK  230  A    between atoms: _574  and  _576
REMARK  231  A    between atoms: _576  and  _577
REMARK  232  A    between atoms: _576  and  _579
REMARK  233  A    between atoms: _579  and  _580
REMARK  234  A    between atoms: _580  and  _581
REMARK  235  A    between atoms: _586  and  _588
REMARK  236  A    between atoms: _588  and  _589
REMARK  237  A    between atoms: _588  and  _591
REMARK  238  A    between atoms: _591  and  _592
REMARK  239  A    between atoms: _595  and  _597
REMARK  240  A    between atoms: _597  and  _598
REMARK  241  A    between atoms: _597  and  _600
REMARK  242  A    between atoms: _600  and  _601
REMARK  243  A    between atoms: _606  and  _607
REMARK  244  A    between atoms: _609  and  _611
REMARK  245  A    between atoms: _611  and  _612
REMARK  246  A    between atoms: _614  and  _616
REMARK  247  A    between atoms: _616  and  _617
REMARK  248  A    between atoms: _620  and  _622
REMARK  249  A    between atoms: _622  and  _623
REMARK  250  A    between atoms: _622  and  _625
REMARK  251  A    between atoms: _627  and  _629
REMARK  252  A    between atoms: _629  and  _630
REMARK  253  A    between atoms: _629  and  _632
REMARK  254  A    between atoms: _632  and  _633
REMARK  255  A    between atoms: _638  and  _639
REMARK  256  A    between atoms: _641  and  _643
REMARK  257  A    between atoms: _643  and  _644
REMARK  258  A    between atoms: _643  and  _646
REMARK  259  A    between atoms: _646  and  _647
REMARK  260  A    between atoms: _650  and  _652
REMARK  261  A    between atoms: _652  and  _653
REMARK  262  A    between atoms: _652  and  _655
REMARK  263  A    between atoms: _655  and  _656
REMARK  264  A    between atoms: _661  and  _663
REMARK  265  A    between atoms: _663  and  _664
REMARK  266  A    between atoms: _663  and  _666
REMARK  267  A    between atoms: _666  and  _667
REMARK  268  A    between atoms: _673  and  _675
REMARK  269  A    between atoms: _675  and  _676
REMARK  270  A    between atoms: _679  and  _681
REMARK  271  A    between atoms: _681  and  _682
REMARK  272  A    between atoms: _684  and  _686
REMARK  273  A    between atoms: _686  and  _687
REMARK  274  A    between atoms: _686  and  _689
REMARK  275  A    between atoms: _689  and  _690
REMARK  276  A    between atoms: _695  and  _696
REMARK  277  A    between atoms: _698  and  _700
REMARK  278  A    between atoms: _700  and  _701
REMARK  279  A    between atoms: _700  and  _703
REMARK  280  A    between atoms: _703  and  _704
REMARK  281  A    between atoms: _706  and  _708
REMARK  282  A    between atoms: _708  and  _709
REMARK  283  A    between atoms: _711  and  _713
REMARK  284  A    between atoms: _713  and  _714
REMARK                            x       y       z     vdW  Elec       q    Type
REMARK                         _______ _______ _______ _____ _____    ______ ____
ROOT
ATOM      1  O   HOH     1      24.473   0.425  37.390  0.00  0.00    +0.000 OA
ENDROOT
TORSDOF 0
REMARK  Name = ../refined-set-2016/3gnw/3gnw_pocket.pdb
REMARK  284 active torsions:
REMARK  status: ('A' for Active; 'I' for Inactive)
REMARK    1  A    between atoms: _1  and  _3
REMARK    2  A    between atoms: _3  and  _4
REMARK    3  A    between atoms: _3  and  _6
REMARK    4  A    between atoms: _6  and  _7
REMARK    5  A    between atoms: _7  and  _8
REMARK    6  A    between atoms: _8  and  _9
REMARK    7  A    between atoms: _9  and  _10
REMARK    8  A    between atoms: _14  and  _16
REMARK    9  A    between atoms: _16  and  _17
REMARK   10  A    between atoms: _16  and  _19
REMARK   11  A    between atoms: _19  and  _20
REMARK   12  A    between atoms: _20  and  _21
REMARK   13  A    between atoms: _24  and  _26
REMARK   14  A    between atoms: _26  and  _27
REMARK   15  A    between atoms: _26  and  _29
REMARK   16  A    between atoms: _29  and  _30
REMARK   17  A    between atoms: _36  and  _38
REMARK   18  A    between atoms: _38  and  _39
REMARK   19  A    between atoms: _38  and  _41
REMARK   20  A    between atoms: _41  and  _42
REMARK   21  A    between atoms: _42  and  _43
REMARK   22  A    between atoms: _43  and  _44
REMARK   23  A    between atoms: _53  and  _55
REMARK   24  A    between atoms: _55  and  _56
REMARK   25  A    between atoms: _55  and  _58
REMARK   26  A    between atoms: _58  and  _59
REMARK   27  A    between atoms: _62  and  _64
REMARK   28  A    between atoms: _64  and  _65
REMARK   29  A    between atoms: _67  and  _69
REMARK   30  A    between atoms: _69  and  _70
REMARK   31  A    between atoms: _69  and  _72
REMARK   32  A    between atoms: _72  and  _73
REMARK   33  A    between atoms: _79  and  _81
REMARK   34  A    between atoms: _81  and  _82
REMARK   35  A    between atoms: _81  and  _84
REMARK   36  A    between atoms: _84  and  _85
REMARK   37  A    between atoms: _90  and  _91
REMARK   38  A    between atoms: _93  and  _95
REMARK   39  A    between atoms: _95  and  _96
REMARK   40  A    between atoms: _95  and  _98
REMARK   41  A    between atoms: _98  and  _99
REMARK   42  A    between atoms: _102  and  _103
REMARK   43  A    between atoms: _108  and  _110
REMARK   44  A    between atoms: _110  and  _111
REMARK   45  A    between atoms: _110  and  _113
REMARK   46  A    between atoms: _113  and  _114
REMARK   47  A    between atoms: _114  and  _115
REMARK   48  A    between atoms: _115  and  _116
REMARK   49  A    between atoms: _116  and  _117
REMARK   50  A    between atoms: _121  and  _123
REMARK   51  A    between atoms: _123  and  _124
REMARK   52  A    between atoms: _123  and  _126
REMARK   53  A    between atoms: _126  and  _127
REMARK   54  A    between atoms: _127  and  _128
REMARK   55  A    between atoms: _133  and  _135
REMARK   56  A    between atoms: _135  and  _136
REMARK   57  A    between atoms: _135  and  _138
REMARK   58  A    between atoms: _138  and  _139
REMARK   59  A    between atoms: _139  and  _140
REMARK   60  A    between atoms: _140  and  _141
REMARK   61  A    between atoms: _150  and  _152
REMARK   62  A    between atoms: _152  and  _153
REMARK   63  A    between atoms: _152  and  _155
REMARK   64  A    between atoms: _158  and  _160
REMARK   65  A    between atoms: _160  and  _161
REMARK   66  A    between atoms: _160  and  _163
REMARK   67  A    between atoms: _163  and  _164
REMARK   68  A    between atoms: _167  and  _169
REMARK   69  A    between atoms: _169  and  _170
REMARK   70  A    between atoms: _169  and  _172
REMARK   71  A    between atoms: _172  and  _173
REMARK   72  A    between atoms: _179  and  _181
REMARK   73  A    between atoms: _181  and  _182
REMARK   74  A    between atoms: _181  and  _184
REMARK   75  A    between atoms: _184  and  _185
REMARK   76  A    between atoms: _188  and  _190
REMARK   77  A    between atoms: _190  and  _191
REMARK   78  A    between atoms: _190  and  _193
REMARK   79  A    between atoms: _193  and  _194
REMARK   80  A    between atoms: _196  and  _198
REMARK   81  A    between atoms: _198  and  _199
REMARK   82  A    between atoms: _198  and  _201
REMARK   83  A    between atoms: _201  and  _202
REMARK   84  A    between atoms: _205  and  _207
REMARK   85  A    between atoms: _207  and  _208
REMARK   86  A    between atoms: _207  and  _210
REMARK   87  A    between atoms: _210  and  _211
REMARK   88  A    between atoms: _213  and  _215
REMARK   89  A    between atoms: _215  and  _216
REMARK   90  A    between atoms: _215  and  _218
REMARK   91  A    between atoms: _218  and  _219
REMARK   92  A    between atoms: _224  and  _226
REMARK   93  A    between atoms: _226  and  _227
REMARK   94  A    between atoms: _226  and  _229
REMARK   95  A    between atoms: _229  and  _230
REMARK   96  A    between atoms: _233  and  _235
REMARK   97  A    between atoms: _235  and  _236
REMARK   98  A    between atoms: _235  and  _238
REMARK   99  A    between atoms: _238  and  _239
REMARK  100  A    between atoms: _244  and  _246
REMARK  101  A    between atoms: _246  and  _247
REMARK  102  A    between atoms: _249  and  _251
REMARK  103  A    between atoms: _251  and  _252
REMARK  104  A    between atoms: _251  and  _254
REMARK  105  A    between atoms: _254  and  _255
REMARK  106  A    between atoms: _258  and  _260
REMARK  107  A    between atoms: _260  and  _261
REMARK  108  A    between atoms: _260  and  _263
REMARK  109  A    between atoms: _263  and  _264
REMARK  110  A    between atoms: _267  and  _269
REMARK  111  A    between atoms: _269  and  _270
REMARK  112  A    between atoms: _269  and  _272
REMARK  113  A    between atoms: _272  and  _273
REMARK  114  A    between atoms: _276  and  _278
REMARK  115  A    between atoms: _278  and  _279
REMARK  116  A    between atoms: _278  and  _281
REMARK  117  A    between atoms: _281  and  _282
REMARK  118  A    between atoms: _284  and  _286
REMARK  119  A    between atoms: _286  and  _287
REMARK  120  A    between atoms: _286  and  _289
REMARK  121  A    between atoms: _291  and  _293
REMARK  122  A    between atoms: _293  and  _294
REMARK  123  A    between atoms: _293  and  _296
REMARK  124  A    between atoms: _296  and  _297
REMARK  125  A    between atoms: _299  and  _301
REMARK  126  A    between atoms: _301  and  _302
REMARK  127  A    between atoms: _301  and  _304
REMARK  128  A    between atoms: _304  and  _305
REMARK  129  A    between atoms: _307  and  _309
REMARK  130  A    between atoms: _309  and  _310
REMARK  131  A    between atoms: _309  and  _312
REMARK  132  A    between atoms: _312  and  _313
REMARK  133  A    between atoms: _318  and  _320
REMARK  134  A    between atoms: _320  and  _321
REMARK  135  A    between atoms: _320  and  _323
REMARK  136  A    between atoms: _323  and  _324
REMARK  137  A    between atoms: _329  and  _330
REMARK  138  A    between atoms: _332  and  _334
REMARK  139  A    between atoms: _334  and  _335
REMARK  140  A    between atoms: _334  and  _337
REMARK  141  A    between atoms: _337  and  _338
REMARK  142  A    between atoms: _341  and  _343
REMARK  143  A    between atoms: _343  and  _344
REMARK  144  A    between atoms: _343  and  _346
REMARK  145  A    between atoms: _346  and  _347
REMARK  146  A    between atoms: _350  and  _352
REMARK  147  A    between atoms: _352  and  _353
REMARK  148  A    between atoms: _352  and  _355
REMARK  149  A    between atoms: _355  and  _356
REMARK  150  A    between atoms: _356  and  _357
REMARK  151  A    between atoms: _357  and  _358
REMARK  152  A    between atoms: _367  and  _369
REMARK  153  A    between atoms: _369  and  _370
REMARK  154  A    between atoms: _369  and  _372
REMARK  155  A    between atoms: _372  and  _373
REMARK  156  A    between atoms: _377  and  _378
REMARK  157  A    between atoms: _383  and  _385
REMARK  158  A    between atoms: _385  and  _386
REMARK  159  A    between atoms: _385  and  _388
REMARK  160  A    between atoms: _388  and  _389
REMARK  161  A    between atoms: _389  and  _390
REMARK  162  A    between atoms: _390  and  _391
REMARK  163  A    between atoms: _400  and  _402
REMARK  164  A    between atoms: _402  and  _403
REMARK  165  A    between atoms: _402  and  _405
REMARK  166  A    between atoms: _405  and  _406
REMARK  167  A    between atoms: _406  and  _407
REMARK  168  A    between atoms: _410  and  _412
REMARK  169  A    between atoms: _412  and  _413
REMARK  170  A    between atoms: _412  and  _415
REMARK  171  A    between atoms: _415  and  _416
REMARK  172  A    between atoms: _419  and  _421
REMARK  173  A    between atoms: _421  and  _422
REMARK  174  A    between atoms: _421  and  _424
REMARK  175  A    between atoms: _424  and  _425
REMARK  176  A    between atoms: _430  and  _432
REMARK  177  A    between atoms: _432  and  _433
REMARK  178  A    between atoms: _432  and  _435
REMARK  179  A    between atoms: _435  and  _436
REMARK  180  A    between atoms: _438  and  _440
REMARK  181  A    between atoms: _440  and  _441
REMARK  182  A    between atoms: _440  and  _443
REMARK  183  A    between atoms: _443  and  _444
REMARK  184  A    between atoms: _454  and  _456
REMARK  185  A    between atoms: _456  and  _457
REMARK  186  A    between atoms: _456  and  _459
REMARK  187  A    between atoms: _459  and  _460
REMARK  188  A    between atoms: _463  and  _465
REMARK  189  A    between atoms: _465  and  _466
REMARK  190  A    between atoms: _468  and  _470
REMARK  191  A    between atoms: _470  and  _471
REMARK  192  A    between atoms: _470  and  _473
REMARK  193  A    between atoms: _473  and  _474
REMARK  194  A    between atoms: _479  and  _481
REMARK  195  A    between atoms: _481  and  _482
REMARK  196  A    between atoms: _481  and  _484
REMARK  197  A    between atoms: _484  and  _485
REMARK  198  A    between atoms: _488  and  _490
REMARK  199  A    between atoms: _490  and  _491
REMARK  200  A    between atoms: _490  and  _493
REMARK  201  A    between atoms: _493  and  _494
REMARK  202  A    between atoms: _497  and  _499
REMARK  203  A    between atoms: _499  and  _500
REMARK  204  A    between atoms: _499  and  _502
REMARK  205  A    between atoms: _502  and  _503
REMARK  206  A    between atoms: _503  and  _504
REMARK  207  A    between atoms: _506  and  _508
REMARK  208  A    between atoms: _508  and  _509
REMARK  209  A    between atoms: _508  and  _511
REMARK  210  A    between atoms: _511  and  _512
REMARK  211  A    between atoms: _517  and  _518
REMARK  212  A    between atoms: _520  and  _522
REMARK  213  A    between atoms: _522  and  _523
REMARK  214  A    between atoms: _527  and  _528
REMARK  215  A    between atoms: _533  and  _535
REMARK  216  A    between atoms: _535  and  _536
REMARK  217  A    between atoms: _535  and  _538
REMARK  218  A    between atoms: _538  and  _539
REMARK  219  A    between atoms: _542  and  _544
REMARK  220  A    between atoms: _544  and  _545
REMARK  221  A    between atoms: _544  and  _547
REMARK  222  A    between atoms: _547  and  _548
REMARK  223  A    between atoms: _558  and  _560
REMARK  224  A    between atoms: _560  and  _561
REMARK  225  A    between atoms: _560  and  _563
REMARK  226  A    between atoms: _563  and  _564
REMARK  227  A    between atoms: _567  and  _569
REMARK  228  A    between atoms: _569  and  _570
REMARK  229  A    between atoms: _569  and  _572
REMARK  230  A    between atoms: _574  and  _576
REMARK  231  A    between atoms: _576  and  _577
REMARK  232  A    between atoms: _576  and  _579
REMARK  233  A    between atoms: _579  and  _580
REMARK  234  A    between atoms: _580  and  _581
REMARK  235  A    between atoms: _586  and  _588
REMARK  236  A    between atoms: _588  and  _589
REMARK  237  A    between atoms: _588  and  _591
REMARK  238  A    between atoms: _591  and  _592
REMARK  239  A    between atoms: _595  and  _597
REMARK  240  A    between atoms: _597  and  _598
REMARK  241  A    between atoms: _597  and  _600
REMARK  242  A    between atoms: _600  and  _601
REMARK  243  A    between atoms: _606  and  _607
REMARK  244  A    between atoms: _609  and  _611
REMARK  245  A    between atoms: _611  and  _612
REMARK  246  A    between atoms: _614  and  _616
REMARK  247  A    between atoms: _616  and  _617
REMARK  248  A    between atoms: _620  and  _622
REMARK  249  A    between atoms: _622  and  _623
REMARK  250  A    between atoms: _622  and  _625
REMARK  251  A    between atoms: _627  and  _629
REMARK  252  A    between atoms: _629  and  _630
REMARK  253  A    between atoms: _629  and  _632
REMARK  254  A    between atoms: _632  and  _633
REMARK  255  A    between atoms: _638  and  _639
REMARK  256  A    between atoms: _641  and  _643
REMARK  257  A    between atoms: _643  and  _644
REMARK  258  A    between atoms: _643  and  _646
REMARK  259  A    between atoms: _646  and  _647
REMARK  260  A    between atoms: _650  and  _652
REMARK  261  A    between atoms: _652  and  _653
REMARK  262  A    between atoms: _652  and  _655
REMARK  263  A    between atoms: _655  and  _656
REMARK  264  A    between atoms: _661  and  _663
REMARK  265  A    between atoms: _663  and  _664
REMARK  266  A    between atoms: _663  and  _666
REMARK  267  A    between atoms: _666  and  _667
REMARK  268  A    between atoms: _673  and  _675
REMARK  269  A    between atoms: _675  and  _676
REMARK  270  A    between atoms: _679  and  _681
REMARK  271  A    between atoms: _681  and  _682
REMARK  272  A    between atoms: _684  and  _686
REMARK  273  A    between atoms: _686  and  _687
REMARK  274  A    between atoms: _686  and  _689
REMARK  275  A    between atoms: _689  and  _690
REMARK  276  A    between atoms: _695  and  _696
REMARK  277  A    between atoms: _698  and  _700
REMARK  278  A    between atoms: _700  and  _701
REMARK  279  A    between atoms: _700  and  _703
REMARK  280  A    between atoms: _703  and  _704
REMARK  281  A    between atoms: _706  and  _708
REMARK  282  A    between atoms: _708  and  _709
REMARK  283  A    between atoms: _711  and  _713
REMARK  284  A    between atoms: _713  and  _714
REMARK                            x       y       z     vdW  Elec       q    Type
REMARK                         _______ _______ _______ _____ _____    ______ ____
ROOT
ATOM      1  O   HOH     1      26.820   9.766  42.758  0.00  0.00    +0.000 OA
ENDROOT
TORSDOF 0
REMARK  Name = ../refined-set-2016/3gnw/3gnw_pocket.pdb
REMARK  284 active torsions:
REMARK  status: ('A' for Active; 'I' for Inactive)
REMARK    1  A    between atoms: _1  and  _3
REMARK    2  A    between atoms: _3  and  _4
REMARK    3  A    between atoms: _3  and  _6
REMARK    4  A    between atoms: _6  and  _7
REMARK    5  A    between atoms: _7  and  _8
REMARK    6  A    between atoms: _8  and  _9
REMARK    7  A    between atoms: _9  and  _10
REMARK    8  A    between atoms: _14  and  _16
REMARK    9  A    between atoms: _16  and  _17
REMARK   10  A    between atoms: _16  and  _19
REMARK   11  A    between atoms: _19  and  _20
REMARK   12  A    between atoms: _20  and  _21
REMARK   13  A    between atoms: _24  and  _26
REMARK   14  A    between atoms: _26  and  _27
REMARK   15  A    between atoms: _26  and  _29
REMARK   16  A    between atoms: _29  and  _30
REMARK   17  A    between atoms: _36  and  _38
REMARK   18  A    between atoms: _38  and  _39
REMARK   19  A    between atoms: _38  and  _41
REMARK   20  A    between atoms: _41  and  _42
REMARK   21  A    between atoms: _42  and  _43
REMARK   22  A    between atoms: _43  and  _44
REMARK   23  A    between atoms: _53  and  _55
REMARK   24  A    between atoms: _55  and  _56
REMARK   25  A    between atoms: _55  and  _58
REMARK   26  A    between atoms: _58  and  _59
REMARK   27  A    between atoms: _62  and  _64
REMARK   28  A    between atoms: _64  and  _65
REMARK   29  A    between atoms: _67  and  _69
REMARK   30  A    between atoms: _69  and  _70
REMARK   31  A    between atoms: _69  and  _72
REMARK   32  A    between atoms: _72  and  _73
REMARK   33  A    between atoms: _79  and  _81
REMARK   34  A    between atoms: _81  and  _82
REMARK   35  A    between atoms: _81  and  _84
REMARK   36  A    between atoms: _84  and  _85
REMARK   37  A    between atoms: _90  and  _91
REMARK   38  A    between atoms: _93  and  _95
REMARK   39  A    between atoms: _95  and  _96
REMARK   40  A    between atoms: _95  and  _98
REMARK   41  A    between atoms: _98  and  _99
REMARK   42  A    between atoms: _102  and  _103
REMARK   43  A    between atoms: _108  and  _110
REMARK   44  A    between atoms: _110  and  _111
REMARK   45  A    between atoms: _110  and  _113
REMARK   46  A    between atoms: _113  and  _114
REMARK   47  A    between atoms: _114  and  _115
REMARK   48  A    between atoms: _115  and  _116
REMARK   49  A    between atoms: _116  and  _117
REMARK   50  A    between atoms: _121  and  _123
REMARK   51  A    between atoms: _123  and  _124
REMARK   52  A    between atoms: _123  and  _126
REMARK   53  A    between atoms: _126  and  _127
REMARK   54  A    between atoms: _127  and  _128
REMARK   55  A    between atoms: _133  and  _135
REMARK   56  A    between atoms: _135  and  _136
REMARK   57  A    between atoms: _135  and  _138
REMARK   58  A    between atoms: _138  and  _139
REMARK   59  A    between atoms: _139  and  _140
REMARK   60  A    between atoms: _140  and  _141
REMARK   61  A    between atoms: _150  and  _152
REMARK   62  A    between atoms: _152  and  _153
REMARK   63  A    between atoms: _152  and  _155
REMARK   64  A    between atoms: _158  and  _160
REMARK   65  A    between atoms: _160  and  _161
REMARK   66  A    between atoms: _160  and  _163
REMARK   67  A    between atoms: _163  and  _164
REMARK   68  A    between atoms: _167  and  _169
REMARK   69  A    between atoms: _169  and  _170
REMARK   70  A    between atoms: _169  and  _172
REMARK   71  A    between atoms: _172  and  _173
REMARK   72  A    between atoms: _179  and  _181
REMARK   73  A    between atoms: _181  and  _182
REMARK   74  A    between atoms: _181  and  _184
REMARK   75  A    between atoms: _184  and  _185
REMARK   76  A    between atoms: _188  and  _190
REMARK   77  A    between atoms: _190  and  _191
REMARK   78  A    between atoms: _190  and  _193
REMARK   79  A    between atoms: _193  and  _194
REMARK   80  A    between atoms: _196  and  _198
REMARK   81  A    between atoms: _198  and  _199
REMARK   82  A    between atoms: _198  and  _201
REMARK   83  A    between atoms: _201  and  _202
REMARK   84  A    between atoms: _205  and  _207
REMARK   85  A    between atoms: _207  and  _208
REMARK   86  A    between atoms: _207  and  _210
REMARK   87  A    between atoms: _210  and  _211
REMARK   88  A    between atoms: _213  and  _215
REMARK   89  A    between atoms: _215  and  _216
REMARK   90  A    between atoms: _215  and  _218
REMARK   91  A    between atoms: _218  and  _219
REMARK   92  A    between atoms: _224  and  _226
REMARK   93  A    between atoms: _226  and  _227
REMARK   94  A    between atoms: _226  and  _229
REMARK   95  A    between atoms: _229  and  _230
REMARK   96  A    between atoms: _233  and  _235
REMARK   97  A    between atoms: _235  and  _236
REMARK   98  A    between atoms: _235  and  _238
REMARK   99  A    between atoms: _238  and  _239
REMARK  100  A    between atoms: _244  and  _246
REMARK  101  A    between atoms: _246  and  _247
REMARK  102  A    between atoms: _249  and  _251
REMARK  103  A    between atoms: _251  and  _252
REMARK  104  A    between atoms: _251  and  _254
REMARK  105  A    between atoms: _254  and  _255
REMARK  106  A    between atoms: _258  and  _260
REMARK  107  A    between atoms: _260  and  _261
REMARK  108  A    between atoms: _260  and  _263
REMARK  109  A    between atoms: _263  and  _264
REMARK  110  A    between atoms: _267  and  _269
REMARK  111  A    between atoms: _269  and  _270
REMARK  112  A    between atoms: _269  and  _272
REMARK  113  A    between atoms: _272  and  _273
REMARK  114  A    between atoms: _276  and  _278
REMARK  115  A    between atoms: _278  and  _279
REMARK  116  A    between atoms: _278  and  _281
REMARK  117  A    between atoms: _281  and  _282
REMARK  118  A    between atoms: _284  and  _286
REMARK  119  A    between atoms: _286  and  _287
REMARK  120  A    between atoms: _286  and  _289
REMARK  121  A    between atoms: _291  and  _293
REMARK  122  A    between atoms: _293  and  _294
REMARK  123  A    between atoms: _293  and  _296
REMARK  124  A    between atoms: _296  and  _297
REMARK  125  A    between atoms: _299  and  _301
REMARK  126  A    between atoms: _301  and  _302
REMARK  127  A    between atoms: _301  and  _304
REMARK  128  A    between atoms: _304  and  _305
REMARK  129  A    between atoms: _307  and  _309
REMARK  130  A    between atoms: _309  and  _310
REMARK  131  A    between atoms: _309  and  _312
REMARK  132  A    between atoms: _312  and  _313
REMARK  133  A    between atoms: _318  and  _320
REMARK  134  A    between atoms: _320  and  _321
REMARK  135  A    between atoms: _320  and  _323
REMARK  136  A    between atoms: _323  and  _324
REMARK  137  A    between atoms: _329  and  _330
REMARK  138  A    between atoms: _332  and  _334
REMARK  139  A    between atoms: _334  and  _335
REMARK  140  A    between atoms: _334  and  _337
REMARK  141  A    between atoms: _337  and  _338
REMARK  142  A    between atoms: _341  and  _343
REMARK  143  A    between atoms: _343  and  _344
REMARK  144  A    between atoms: _343  and  _346
REMARK  145  A    between atoms: _346  and  _347
REMARK  146  A    between atoms: _350  and  _352
REMARK  147  A    between atoms: _352  and  _353
REMARK  148  A    between atoms: _352  and  _355
REMARK  149  A    between atoms: _355  and  _356
REMARK  150  A    between atoms: _356  and  _357
REMARK  151  A    between atoms: _357  and  _358
REMARK  152  A    between atoms: _367  and  _369
REMARK  153  A    between atoms: _369  and  _370
REMARK  154  A    between atoms: _369  and  _372
REMARK  155  A    between atoms: _372  and  _373
REMARK  156  A    between atoms: _377  and  _378
REMARK  157  A    between atoms: _383  and  _385
REMARK  158  A    between atoms: _385  and  _386
REMARK  159  A    between atoms: _385  and  _388
REMARK  160  A    between atoms: _388  and  _389
REMARK  161  A    between atoms: _389  and  _390
REMARK  162  A    between atoms: _390  and  _391
REMARK  163  A    between atoms: _400  and  _402
REMARK  164  A    between atoms: _402  and  _403
REMARK  165  A    between atoms: _402  and  _405
REMARK  166  A    between atoms: _405  and  _406
REMARK  167  A    between atoms: _406  and  _407
REMARK  168  A    between atoms: _410  and  _412
REMARK  169  A    between atoms: _412  and  _413
REMARK  170  A    between atoms: _412  and  _415
REMARK  171  A    between atoms: _415  and  _416
REMARK  172  A    between atoms: _419  and  _421
REMARK  173  A    between atoms: _421  and  _422
REMARK  174  A    between atoms: _421  and  _424
REMARK  175  A    between atoms: _424  and  _425
REMARK  176  A    between atoms: _430  and  _432
REMARK  177  A    between atoms: _432  and  _433
REMARK  178  A    between atoms: _432  and  _435
REMARK  179  A    between atoms: _435  and  _436
REMARK  180  A    between atoms: _438  and  _440
REMARK  181  A    between atoms: _440  and  _441
REMARK  182  A    between atoms: _440  and  _443
REMARK  183  A    between atoms: _443  and  _444
REMARK  184  A    between atoms: _454  and  _456
REMARK  185  A    between atoms: _456  and  _457
REMARK  186  A    between atoms: _456  and  _459
REMARK  187  A    between atoms: _459  and  _460
REMARK  188  A    between atoms: _463  and  _465
REMARK  189  A    between atoms: _465  and  _466
REMARK  190  A    between atoms: _468  and  _470
REMARK  191  A    between atoms: _470  and  _471
REMARK  192  A    between atoms: _470  and  _473
REMARK  193  A    between atoms: _473  and  _474
REMARK  194  A    between atoms: _479  and  _481
REMARK  195  A    between atoms: _481  and  _482
REMARK  196  A    between atoms: _481  and  _484
REMARK  197  A    between atoms: _484  and  _485
REMARK  198  A    between atoms: _488  and  _490
REMARK  199  A    between atoms: _490  and  _491
REMARK  200  A    between atoms: _490  and  _493
REMARK  201  A    between atoms: _493  and  _494
REMARK  202  A    between atoms: _497  and  _499
REMARK  203  A    between atoms: _499  and  _500
REMARK  204  A    between atoms: _499  and  _502
REMARK  205  A    between atoms: _502  and  _503
REMARK  206  A    between atoms: _503  and  _504
REMARK  207  A    between atoms: _506  and  _508
REMARK  208  A    between atoms: _508  and  _509
REMARK  209  A    between atoms: _508  and  _511
REMARK  210  A    between atoms: _511  and  _512
REMARK  211  A    between atoms: _517  and  _518
REMARK  212  A    between atoms: _520  and  _522
REMARK  213  A    between atoms: _522  and  _523
REMARK  214  A    between atoms: _527  and  _528
REMARK  215  A    between atoms: _533  and  _535
REMARK  216  A    between atoms: _535  and  _536
REMARK  217  A    between atoms: _535  and  _538
REMARK  218  A    between atoms: _538  and  _539
REMARK  219  A    between atoms: _542  and  _544
REMARK  220  A    between atoms: _544  and  _545
REMARK  221  A    between atoms: _544  and  _547
REMARK  222  A    between atoms: _547  and  _548
REMARK  223  A    between atoms: _558  and  _560
REMARK  224  A    between atoms: _560  and  _561
REMARK  225  A    between atoms: _560  and  _563
REMARK  226  A    between atoms: _563  and  _564
REMARK  227  A    between atoms: _567  and  _569
REMARK  228  A    between atoms: _569  and  _570
REMARK  229  A    between atoms: _569  and  _572
REMARK  230  A    between atoms: _574  and  _576
REMARK  231  A    between atoms: _576  and  _577
REMARK  232  A    between atoms: _576  and  _579
REMARK  233  A    between atoms: _579  and  _580
REMARK  234  A    between atoms: _580  and  _581
REMARK  235  A    between atoms: _586  and  _588
REMARK  236  A    between atoms: _588  and  _589
REMARK  237  A    between atoms: _588  and  _591
REMARK  238  A    between atoms: _591  and  _592
REMARK  239  A    between atoms: _595  and  _597
REMARK  240  A    between atoms: _597  and  _598
REMARK  241  A    between atoms: _597  and  _600
REMARK  242  A    between atoms: _600  and  _601
REMARK  243  A    between atoms: _606  and  _607
REMARK  244  A    between atoms: _609  and  _611
REMARK  245  A    between atoms: _611  and  _612
REMARK  246  A    between atoms: _614  and  _616
REMARK  247  A    between atoms: _616  and  _617
REMARK  248  A    between atoms: _620  and  _622
REMARK  249  A    between atoms: _622  and  _623
REMARK  250  A    between atoms: _622  and  _625
REMARK  251  A    between atoms: _627  and  _629
REMARK  252  A    between atoms: _629  and  _630
REMARK  253  A    between atoms: _629  and  _632
REMARK  254  A    between atoms: _632  and  _633
REMARK  255  A    between atoms: _638  and  _639
REMARK  256  A    between atoms: _641  and  _643
REMARK  257  A    between atoms: _643  and  _644
REMARK  258  A    between atoms: _643  and  _646
REMARK  259  A    between atoms: _646  and  _647
REMARK  260  A    between atoms: _650  and  _652
REMARK  261  A    between atoms: _652  and  _653
REMARK  262  A    between atoms: _652  and  _655
REMARK  263  A    between atoms: _655  and  _656
REMARK  264  A    between atoms: _661  and  _663
REMARK  265  A    between atoms: _663  and  _664
REMARK  266  A    between atoms: _663  and  _666
REMARK  267  A    between atoms: _666  and  _667
REMARK  268  A    between atoms: _673  and  _675
REMARK  269  A    between atoms: _675  and  _676
REMARK  270  A    between atoms: _679  and  _681
REMARK  271  A    between atoms: _681  and  _682
REMARK  272  A    between atoms: _684  and  _686
REMARK  273  A    between atoms: _686  and  _687
REMARK  274  A    between atoms: _686  and  _689
REMARK  275  A    between atoms: _689  and  _690
REMARK  276  A    between atoms: _695  and  _696
REMARK  277  A    between atoms: _698  and  _700
REMARK  278  A    between atoms: _700  and  _701
REMARK  279  A    between atoms: _700  and  _703
REMARK  280  A    between atoms: _703  and  _704
REMARK  281  A    between atoms: _706  and  _708
REMARK  282  A    between atoms: _708  and  _709
REMARK  283  A    between atoms: _711  and  _713
REMARK  284  A    between atoms: _713  and  _714
REMARK                            x       y       z     vdW  Elec       q    Type
REMARK                         _______ _______ _______ _____ _____    ______ ____
ROOT
ATOM      1  O   HOH     1      24.343   3.329  44.649  0.00  0.00    +0.000 OA
ENDROOT
TORSDOF 0
REMARK  Name = ../refined-set-2016/3gnw/3gnw_pocket.pdb
REMARK  284 active torsions:
REMARK  status: ('A' for Active; 'I' for Inactive)
REMARK    1  A    between atoms: _1  and  _3
REMARK    2  A    between atoms: _3  and  _4
REMARK    3  A    between atoms: _3  and  _6
REMARK    4  A    between atoms: _6  and  _7
REMARK    5  A    between atoms: _7  and  _8
REMARK    6  A    between atoms: _8  and  _9
REMARK    7  A    between atoms: _9  and  _10
REMARK    8  A    between atoms: _14  and  _16
REMARK    9  A    between atoms: _16  and  _17
REMARK   10  A    between atoms: _16  and  _19
REMARK   11  A    between atoms: _19  and  _20
REMARK   12  A    between atoms: _20  and  _21
REMARK   13  A    between atoms: _24  and  _26
REMARK   14  A    between atoms: _26  and  _27
REMARK   15  A    between atoms: _26  and  _29
REMARK   16  A    between atoms: _29  and  _30
REMARK   17  A    between atoms: _36  and  _38
REMARK   18  A    between atoms: _38  and  _39
REMARK   19  A    between atoms: _38  and  _41
REMARK   20  A    between atoms: _41  and  _42
REMARK   21  A    between atoms: _42  and  _43
REMARK   22  A    between atoms: _43  and  _44
REMARK   23  A    between atoms: _53  and  _55
REMARK   24  A    between atoms: _55  and  _56
REMARK   25  A    between atoms: _55  and  _58
REMARK   26  A    between atoms: _58  and  _59
REMARK   27  A    between atoms: _62  and  _64
REMARK   28  A    between atoms: _64  and  _65
REMARK   29  A    between atoms: _67  and  _69
REMARK   30  A    between atoms: _69  and  _70
REMARK   31  A    between atoms: _69  and  _72
REMARK   32  A    between atoms: _72  and  _73
REMARK   33  A    between atoms: _79  and  _81
REMARK   34  A    between atoms: _81  and  _82
REMARK   35  A    between atoms: _81  and  _84
REMARK   36  A    between atoms: _84  and  _85
REMARK   37  A    between atoms: _90  and  _91
REMARK   38  A    between atoms: _93  and  _95
REMARK   39  A    between atoms: _95  and  _96
REMARK   40  A    between atoms: _95  and  _98
REMARK   41  A    between atoms: _98  and  _99
REMARK   42  A    between atoms: _102  and  _103
REMARK   43  A    between atoms: _108  and  _110
REMARK   44  A    between atoms: _110  and  _111
REMARK   45  A    between atoms: _110  and  _113
REMARK   46  A    between atoms: _113  and  _114
REMARK   47  A    between atoms: _114  and  _115
REMARK   48  A    between atoms: _115  and  _116
REMARK   49  A    between atoms: _116  and  _117
REMARK   50  A    between atoms: _121  and  _123
REMARK   51  A    between atoms: _123  and  _124
REMARK   52  A    between atoms: _123  and  _126
REMARK   53  A    between atoms: _126  and  _127
REMARK   54  A    between atoms: _127  and  _128
REMARK   55  A    between atoms: _133  and  _135
REMARK   56  A    between atoms: _135  and  _136
REMARK   57  A    between atoms: _135  and  _138
REMARK   58  A    between atoms: _138  and  _139
REMARK   59  A    between atoms: _139  and  _140
REMARK   60  A    between atoms: _140  and  _141
REMARK   61  A    between atoms: _150  and  _152
REMARK   62  A    between atoms: _152  and  _153
REMARK   63  A    between atoms: _152  and  _155
REMARK   64  A    between atoms: _158  and  _160
REMARK   65  A    between atoms: _160  and  _161
REMARK   66  A    between atoms: _160  and  _163
REMARK   67  A    between atoms: _163  and  _164
REMARK   68  A    between atoms: _167  and  _169
REMARK   69  A    between atoms: _169  and  _170
REMARK   70  A    between atoms: _169  and  _172
REMARK   71  A    between atoms: _172  and  _173
REMARK   72  A    between atoms: _179  and  _181
REMARK   73  A    between atoms: _181  and  _182
REMARK   74  A    between atoms: _181  and  _184
REMARK   75  A    between atoms: _184  and  _185
REMARK   76  A    between atoms: _188  and  _190
REMARK   77  A    between atoms: _190  and  _191
REMARK   78  A    between atoms: _190  and  _193
REMARK   79  A    between atoms: _193  and  _194
REMARK   80  A    between atoms: _196  and  _198
REMARK   81  A    between atoms: _198  and  _199
REMARK   82  A    between atoms: _198  and  _201
REMARK   83  A    between atoms: _201  and  _202
REMARK   84  A    between atoms: _205  and  _207
REMARK   85  A    between atoms: _207  and  _208
REMARK   86  A    between atoms: _207  and  _210
REMARK   87  A    between atoms: _210  and  _211
REMARK   88  A    between atoms: _213  and  _215
REMARK   89  A    between atoms: _215  and  _216
REMARK   90  A    between atoms: _215  and  _218
REMARK   91  A    between atoms: _218  and  _219
REMARK   92  A    between atoms: _224  and  _226
REMARK   93  A    between atoms: _226  and  _227
REMARK   94  A    between atoms: _226  and  _229
REMARK   95  A    between atoms: _229  and  _230
REMARK   96  A    between atoms: _233  and  _235
REMARK   97  A    between atoms: _235  and  _236
REMARK   98  A    between atoms: _235  and  _238
REMARK   99  A    between atoms: _238  and  _239
REMARK  100  A    between atoms: _244  and  _246
REMARK  101  A    between atoms: _246  and  _247
REMARK  102  A    between atoms: _249  and  _251
REMARK  103  A    between atoms: _251  and  _252
REMARK  104  A    between atoms: _251  and  _254
REMARK  105  A    between atoms: _254  and  _255
REMARK  106  A    between atoms: _258  and  _260
REMARK  107  A    between atoms: _260  and  _261
REMARK  108  A    between atoms: _260  and  _263
REMARK  109  A    between atoms: _263  and  _264
REMARK  110  A    between atoms: _267  and  _269
REMARK  111  A    between atoms: _269  and  _270
REMARK  112  A    between atoms: _269  and  _272
REMARK  113  A    between atoms: _272  and  _273
REMARK  114  A    between atoms: _276  and  _278
REMARK  115  A    between atoms: _278  and  _279
REMARK  116  A    between atoms: _278  and  _281
REMARK  117  A    between atoms: _281  and  _282
REMARK  118  A    between atoms: _284  and  _286
REMARK  119  A    between atoms: _286  and  _287
REMARK  120  A    between atoms: _286  and  _289
REMARK  121  A    between atoms: _291  and  _293
REMARK  122  A    between atoms: _293  and  _294
REMARK  123  A    between atoms: _293  and  _296
REMARK  124  A    between atoms: _296  and  _297
REMARK  125  A    between atoms: _299  and  _301
REMARK  126  A    between atoms: _301  and  _302
REMARK  127  A    between atoms: _301  and  _304
REMARK  128  A    between atoms: _304  and  _305
REMARK  129  A    between atoms: _307  and  _309
REMARK  130  A    between atoms: _309  and  _310
REMARK  131  A    between atoms: _309  and  _312
REMARK  132  A    between atoms: _312  and  _313
REMARK  133  A    between atoms: _318  and  _320
REMARK  134  A    between atoms: _320  and  _321
REMARK  135  A    between atoms: _320  and  _323
REMARK  136  A    between atoms: _323  and  _324
REMARK  137  A    between atoms: _329  and  _330
REMARK  138  A    between atoms: _332  and  _334
REMARK  139  A    between atoms: _334  and  _335
REMARK  140  A    between atoms: _334  and  _337
REMARK  141  A    between atoms: _337  and  _338
REMARK  142  A    between atoms: _341  and  _343
REMARK  143  A    between atoms: _343  and  _344
REMARK  144  A    between atoms: _343  and  _346
REMARK  145  A    between atoms: _346  and  _347
REMARK  146  A    between atoms: _350  and  _352
REMARK  147  A    between atoms: _352  and  _353
REMARK  148  A    between atoms: _352  and  _355
REMARK  149  A    between atoms: _355  and  _356
REMARK  150  A    between atoms: _356  and  _357
REMARK  151  A    between atoms: _357  and  _358
REMARK  152  A    between atoms: _367  and  _369
REMARK  153  A    between atoms: _369  and  _370
REMARK  154  A    between atoms: _369  and  _372
REMARK  155  A    between atoms: _372  and  _373
REMARK  156  A    between atoms: _377  and  _378
REMARK  157  A    between atoms: _383  and  _385
REMARK  158  A    between atoms: _385  and  _386
REMARK  159  A    between atoms: _385  and  _388
REMARK  160  A    between atoms: _388  and  _389
REMARK  161  A    between atoms: _389  and  _390
REMARK  162  A    between atoms: _390  and  _391
REMARK  163  A    between atoms: _400  and  _402
REMARK  164  A    between atoms: _402  and  _403
REMARK  165  A    between atoms: _402  and  _405
REMARK  166  A    between atoms: _405  and  _406
REMARK  167  A    between atoms: _406  and  _407
REMARK  168  A    between atoms: _410  and  _412
REMARK  169  A    between atoms: _412  and  _413
REMARK  170  A    between atoms: _412  and  _415
REMARK  171  A    between atoms: _415  and  _416
REMARK  172  A    between atoms: _419  and  _421
REMARK  173  A    between atoms: _421  and  _422
REMARK  174  A    between atoms: _421  and  _424
REMARK  175  A    between atoms: _424  and  _425
REMARK  176  A    between atoms: _430  and  _432
REMARK  177  A    between atoms: _432  and  _433
REMARK  178  A    between atoms: _432  and  _435
REMARK  179  A    between atoms: _435  and  _436
REMARK  180  A    between atoms: _438  and  _440
REMARK  181  A    between atoms: _440  and  _441
REMARK  182  A    between atoms: _440  and  _443
REMARK  183  A    between atoms: _443  and  _444
REMARK  184  A    between atoms: _454  and  _456
REMARK  185  A    between atoms: _456  and  _457
REMARK  186  A    between atoms: _456  and  _459
REMARK  187  A    between atoms: _459  and  _460
REMARK  188  A    between atoms: _463  and  _465
REMARK  189  A    between atoms: _465  and  _466
REMARK  190  A    between atoms: _468  and  _470
REMARK  191  A    between atoms: _470  and  _471
REMARK  192  A    between atoms: _470  and  _473
REMARK  193  A    between atoms: _473  and  _474
REMARK  194  A    between atoms: _479  and  _481
REMARK  195  A    between atoms: _481  and  _482
REMARK  196  A    between atoms: _481  and  _484
REMARK  197  A    between atoms: _484  and  _485
REMARK  198  A    between atoms: _488  and  _490
REMARK  199  A    between atoms: _490  and  _491
REMARK  200  A    between atoms: _490  and  _493
REMARK  201  A    between atoms: _493  and  _494
REMARK  202  A    between atoms: _497  and  _499
REMARK  203  A    between atoms: _499  and  _500
REMARK  204  A    between atoms: _499  and  _502
REMARK  205  A    between atoms: _502  and  _503
REMARK  206  A    between atoms: _503  and  _504
REMARK  207  A    between atoms: _506  and  _508
REMARK  208  A    between atoms: _508  and  _509
REMARK  209  A    between atoms: _508  and  _511
REMARK  210  A    between atoms: _511  and  _512
REMARK  211  A    between atoms: _517  and  _518
REMARK  212  A    between atoms: _520  and  _522
REMARK  213  A    between atoms: _522  and  _523
REMARK  214  A    between atoms: _527  and  _528
REMARK  215  A    between atoms: _533  and  _535
REMARK  216  A    between atoms: _535  and  _536
REMARK  217  A    between atoms: _535  and  _538
REMARK  218  A    between atoms: _538  and  _539
REMARK  219  A    between atoms: _542  and  _544
REMARK  220  A    between atoms: _544  and  _545
REMARK  221  A    between atoms: _544  and  _547
REMARK  222  A    between atoms: _547  and  _548
REMARK  223  A    between atoms: _558  and  _560
REMARK  224  A    between atoms: _560  and  _561
REMARK  225  A    between atoms: _560  and  _563
REMARK  226  A    between atoms: _563  and  _564
REMARK  227  A    between atoms: _567  and  _569
REMARK  228  A    between atoms: _569  and  _570
REMARK  229  A    between atoms: _569  and  _572
REMARK  230  A    between atoms: _574  and  _576
REMARK  231  A    between atoms: _576  and  _577
REMARK  232  A    between atoms: _576  and  _579
REMARK  233  A    between atoms: _579  and  _580
REMARK  234  A    between atoms: _580  and  _581
REMARK  235  A    between atoms: _586  and  _588
REMARK  236  A    between atoms: _588  and  _589
REMARK  237  A    between atoms: _588  and  _591
REMARK  238  A    between atoms: _591  and  _592
REMARK  239  A    between atoms: _595  and  _597
REMARK  240  A    between atoms: _597  and  _598
REMARK  241  A    between atoms: _597  and  _600
REMARK  242  A    between atoms: _600  and  _601
REMARK  243  A    between atoms: _606  and  _607
REMARK  244  A    between atoms: _609  and  _611
REMARK  245  A    between atoms: _611  and  _612
REMARK  246  A    between atoms: _614  and  _616
REMARK  247  A    between atoms: _616  and  _617
REMARK  248  A    between atoms: _620  and  _622
REMARK  249  A    between atoms: _622  and  _623
REMARK  250  A    between atoms: _622  and  _625
REMARK  251  A    between atoms: _627  and  _629
REMARK  252  A    between atoms: _629  and  _630
REMARK  253  A    between atoms: _629  and  _632
REMARK  254  A    between atoms: _632  and  _633
REMARK  255  A    between atoms: _638  and  _639
REMARK  256  A    between atoms: _641  and  _643
REMARK  257  A    between atoms: _643  and  _644
REMARK  258  A    between atoms: _643  and  _646
REMARK  259  A    between atoms: _646  and  _647
REMARK  260  A    between atoms: _650  and  _652
REMARK  261  A    between atoms: _652  and  _653
REMARK  262  A    between atoms: _652  and  _655
REMARK  263  A    between atoms: _655  and  _656
REMARK  264  A    between atoms: _661  and  _663
REMARK  265  A    between atoms: _663  and  _664
REMARK  266  A    between atoms: _663  and  _666
REMARK  267  A    between atoms: _666  and  _667
REMARK  268  A    between atoms: _673  and  _675
REMARK  269  A    between atoms: _675  and  _676
REMARK  270  A    between atoms: _679  and  _681
REMARK  271  A    between atoms: _681  and  _682
REMARK  272  A    between atoms: _684  and  _686
REMARK  273  A    between atoms: _686  and  _687
REMARK  274  A    between atoms: _686  and  _689
REMARK  275  A    between atoms: _689  and  _690
REMARK  276  A    between atoms: _695  and  _696
REMARK  277  A    between atoms: _698  and  _700
REMARK  278  A    between atoms: _700  and  _701
REMARK  279  A    between atoms: _700  and  _703
REMARK  280  A    between atoms: _703  and  _704
REMARK  281  A    between atoms: _706  and  _708
REMARK  282  A    between atoms: _708  and  _709
REMARK  283  A    between atoms: _711  and  _713
REMARK  284  A    between atoms: _713  and  _714
REMARK                            x       y       z     vdW  Elec       q    Type
REMARK                         _______ _______ _______ _____ _____    ______ ____
ROOT
ATOM      1  O   HOH     1      30.286   1.927  35.480  0.00  0.00    +0.000 OA
ENDROOT
TORSDOF 0
REMARK  Name = ../refined-set-2016/3gnw/3gnw_pocket.pdb
REMARK  284 active torsions:
REMARK  status: ('A' for Active; 'I' for Inactive)
REMARK    1  A    between atoms: _1  and  _3
REMARK    2  A    between atoms: _3  and  _4
REMARK    3  A    between atoms: _3  and  _6
REMARK    4  A    between atoms: _6  and  _7
REMARK    5  A    between atoms: _7  and  _8
REMARK    6  A    between atoms: _8  and  _9
REMARK    7  A    between atoms: _9  and  _10
REMARK    8  A    between atoms: _14  and  _16
REMARK    9  A    between atoms: _16  and  _17
REMARK   10  A    between atoms: _16  and  _19
REMARK   11  A    between atoms: _19  and  _20
REMARK   12  A    between atoms: _20  and  _21
REMARK   13  A    between atoms: _24  and  _26
REMARK   14  A    between atoms: _26  and  _27
REMARK   15  A    between atoms: _26  and  _29
REMARK   16  A    between atoms: _29  and  _30
REMARK   17  A    between atoms: _36  and  _38
REMARK   18  A    between atoms: _38  and  _39
REMARK   19  A    between atoms: _38  and  _41
REMARK   20  A    between atoms: _41  and  _42
REMARK   21  A    between atoms: _42  and  _43
REMARK   22  A    between atoms: _43  and  _44
REMARK   23  A    between atoms: _53  and  _55
REMARK   24  A    between atoms: _55  and  _56
REMARK   25  A    between atoms: _55  and  _58
REMARK   26  A    between atoms: _58  and  _59
REMARK   27  A    between atoms: _62  and  _64
REMARK   28  A    between atoms: _64  and  _65
REMARK   29  A    between atoms: _67  and  _69
REMARK   30  A    between atoms: _69  and  _70
REMARK   31  A    between atoms: _69  and  _72
REMARK   32  A    between atoms: _72  and  _73
REMARK   33  A    between atoms: _79  and  _81
REMARK   34  A    between atoms: _81  and  _82
REMARK   35  A    between atoms: _81  and  _84
REMARK   36  A    between atoms: _84  and  _85
REMARK   37  A    between atoms: _90  and  _91
REMARK   38  A    between atoms: _93  and  _95
REMARK   39  A    between atoms: _95  and  _96
REMARK   40  A    between atoms: _95  and  _98
REMARK   41  A    between atoms: _98  and  _99
REMARK   42  A    between atoms: _102  and  _103
REMARK   43  A    between atoms: _108  and  _110
REMARK   44  A    between atoms: _110  and  _111
REMARK   45  A    between atoms: _110  and  _113
REMARK   46  A    between atoms: _113  and  _114
REMARK   47  A    between atoms: _114  and  _115
REMARK   48  A    between atoms: _115  and  _116
REMARK   49  A    between atoms: _116  and  _117
REMARK   50  A    between atoms: _121  and  _123
REMARK   51  A    between atoms: _123  and  _124
REMARK   52  A    between atoms: _123  and  _126
REMARK   53  A    between atoms: _126  and  _127
REMARK   54  A    between atoms: _127  and  _128
REMARK   55  A    between atoms: _133  and  _135
REMARK   56  A    between atoms: _135  and  _136
REMARK   57  A    between atoms: _135  and  _138
REMARK   58  A    between atoms: _138  and  _139
REMARK   59  A    between atoms: _139  and  _140
REMARK   60  A    between atoms: _140  and  _141
REMARK   61  A    between atoms: _150  and  _152
REMARK   62  A    between atoms: _152  and  _153
REMARK   63  A    between atoms: _152  and  _155
REMARK   64  A    between atoms: _158  and  _160
REMARK   65  A    between atoms: _160  and  _161
REMARK   66  A    between atoms: _160  and  _163
REMARK   67  A    between atoms: _163  and  _164
REMARK   68  A    between atoms: _167  and  _169
REMARK   69  A    between atoms: _169  and  _170
REMARK   70  A    between atoms: _169  and  _172
REMARK   71  A    between atoms: _172  and  _173
REMARK   72  A    between atoms: _179  and  _181
REMARK   73  A    between atoms: _181  and  _182
REMARK   74  A    between atoms: _181  and  _184
REMARK   75  A    between atoms: _184  and  _185
REMARK   76  A    between atoms: _188  and  _190
REMARK   77  A    between atoms: _190  and  _191
REMARK   78  A    between atoms: _190  and  _193
REMARK   79  A    between atoms: _193  and  _194
REMARK   80  A    between atoms: _196  and  _198
REMARK   81  A    between atoms: _198  and  _199
REMARK   82  A    between atoms: _198  and  _201
REMARK   83  A    between atoms: _201  and  _202
REMARK   84  A    between atoms: _205  and  _207
REMARK   85  A    between atoms: _207  and  _208
REMARK   86  A    between atoms: _207  and  _210
REMARK   87  A    between atoms: _210  and  _211
REMARK   88  A    between atoms: _213  and  _215
REMARK   89  A    between atoms: _215  and  _216
REMARK   90  A    between atoms: _215  and  _218
REMARK   91  A    between atoms: _218  and  _219
REMARK   92  A    between atoms: _224  and  _226
REMARK   93  A    between atoms: _226  and  _227
REMARK   94  A    between atoms: _226  and  _229
REMARK   95  A    between atoms: _229  and  _230
REMARK   96  A    between atoms: _233  and  _235
REMARK   97  A    between atoms: _235  and  _236
REMARK   98  A    between atoms: _235  and  _238
REMARK   99  A    between atoms: _238  and  _239
REMARK  100  A    between atoms: _244  and  _246
REMARK  101  A    between atoms: _246  and  _247
REMARK  102  A    between atoms: _249  and  _251
REMARK  103  A    between atoms: _251  and  _252
REMARK  104  A    between atoms: _251  and  _254
REMARK  105  A    between atoms: _254  and  _255
REMARK  106  A    between atoms: _258  and  _260
REMARK  107  A    between atoms: _260  and  _261
REMARK  108  A    between atoms: _260  and  _263
REMARK  109  A    between atoms: _263  and  _264
REMARK  110  A    between atoms: _267  and  _269
REMARK  111  A    between atoms: _269  and  _270
REMARK  112  A    between atoms: _269  and  _272
REMARK  113  A    between atoms: _272  and  _273
REMARK  114  A    between atoms: _276  and  _278
REMARK  115  A    between atoms: _278  and  _279
REMARK  116  A    between atoms: _278  and  _281
REMARK  117  A    between atoms: _281  and  _282
REMARK  118  A    between atoms: _284  and  _286
REMARK  119  A    between atoms: _286  and  _287
REMARK  120  A    between atoms: _286  and  _289
REMARK  121  A    between atoms: _291  and  _293
REMARK  122  A    between atoms: _293  and  _294
REMARK  123  A    between atoms: _293  and  _296
REMARK  124  A    between atoms: _296  and  _297
REMARK  125  A    between atoms: _299  and  _301
REMARK  126  A    between atoms: _301  and  _302
REMARK  127  A    between atoms: _301  and  _304
REMARK  128  A    between atoms: _304  and  _305
REMARK  129  A    between atoms: _307  and  _309
REMARK  130  A    between atoms: _309  and  _310
REMARK  131  A    between atoms: _309  and  _312
REMARK  132  A    between atoms: _312  and  _313
REMARK  133  A    between atoms: _318  and  _320
REMARK  134  A    between atoms: _320  and  _321
REMARK  135  A    between atoms: _320  and  _323
REMARK  136  A    between atoms: _323  and  _324
REMARK  137  A    between atoms: _329  and  _330
REMARK  138  A    between atoms: _332  and  _334
REMARK  139  A    between atoms: _334  and  _335
REMARK  140  A    between atoms: _334  and  _337
REMARK  141  A    between atoms: _337  and  _338
REMARK  142  A    between atoms: _341  and  _343
REMARK  143  A    between atoms: _343  and  _344
REMARK  144  A    between atoms: _343  and  _346
REMARK  145  A    between atoms: _346  and  _347
REMARK  146  A    between atoms: _350  and  _352
REMARK  147  A    between atoms: _352  and  _353
REMARK  148  A    between atoms: _352  and  _355
REMARK  149  A    between atoms: _355  and  _356
REMARK  150  A    between atoms: _356  and  _357
REMARK  151  A    between atoms: _357  and  _358
REMARK  152  A    between atoms: _367  and  _369
REMARK  153  A    between atoms: _369  and  _370
REMARK  154  A    between atoms: _369  and  _372
REMARK  155  A    between atoms: _372  and  _373
REMARK  156  A    between atoms: _377  and  _378
REMARK  157  A    between atoms: _383  and  _385
REMARK  158  A    between atoms: _385  and  _386
REMARK  159  A    between atoms: _385  and  _388
REMARK  160  A    between atoms: _388  and  _389
REMARK  161  A    between atoms: _389  and  _390
REMARK  162  A    between atoms: _390  and  _391
REMARK  163  A    between atoms: _400  and  _402
REMARK  164  A    between atoms: _402  and  _403
REMARK  165  A    between atoms: _402  and  _405
REMARK  166  A    between atoms: _405  and  _406
REMARK  167  A    between atoms: _406  and  _407
REMARK  168  A    between atoms: _410  and  _412
REMARK  169  A    between atoms: _412  and  _413
REMARK  170  A    between atoms: _412  and  _415
REMARK  171  A    between atoms: _415  and  _416
REMARK  172  A    between atoms: _419  and  _421
REMARK  173  A    between atoms: _421  and  _422
REMARK  174  A    between atoms: _421  and  _424
REMARK  175  A    between atoms: _424  and  _425
REMARK  176  A    between atoms: _430  and  _432
REMARK  177  A    between atoms: _432  and  _433
REMARK  178  A    between atoms: _432  and  _435
REMARK  179  A    between atoms: _435  and  _436
REMARK  180  A    between atoms: _438  and  _440
REMARK  181  A    between atoms: _440  and  _441
REMARK  182  A    between atoms: _440  and  _443
REMARK  183  A    between atoms: _443  and  _444
REMARK  184  A    between atoms: _454  and  _456
REMARK  185  A    between atoms: _456  and  _457
REMARK  186  A    between atoms: _456  and  _459
REMARK  187  A    between atoms: _459  and  _460
REMARK  188  A    between atoms: _463  and  _465
REMARK  189  A    between atoms: _465  and  _466
REMARK  190  A    between atoms: _468  and  _470
REMARK  191  A    between atoms: _470  and  _471
REMARK  192  A    between atoms: _470  and  _473
REMARK  193  A    between atoms: _473  and  _474
REMARK  194  A    between atoms: _479  and  _481
REMARK  195  A    between atoms: _481  and  _482
REMARK  196  A    between atoms: _481  and  _484
REMARK  197  A    between atoms: _484  and  _485
REMARK  198  A    between atoms: _488  and  _490
REMARK  199  A    between atoms: _490  and  _491
REMARK  200  A    between atoms: _490  and  _493
REMARK  201  A    between atoms: _493  and  _494
REMARK  202  A    between atoms: _497  and  _499
REMARK  203  A    between atoms: _499  and  _500
REMARK  204  A    between atoms: _499  and  _502
REMARK  205  A    between atoms: _502  and  _503
REMARK  206  A    between atoms: _503  and  _504
REMARK  207  A    between atoms: _506  and  _508
REMARK  208  A    between atoms: _508  and  _509
REMARK  209  A    between atoms: _508  and  _511
REMARK  210  A    between atoms: _511  and  _512
REMARK  211  A    between atoms: _517  and  _518
REMARK  212  A    between atoms: _520  and  _522
REMARK  213  A    between atoms: _522  and  _523
REMARK  214  A    between atoms: _527  and  _528
REMARK  215  A    between atoms: _533  and  _535
REMARK  216  A    between atoms: _535  and  _536
REMARK  217  A    between atoms: _535  and  _538
REMARK  218  A    between atoms: _538  and  _539
REMARK  219  A    between atoms: _542  and  _544
REMARK  220  A    between atoms: _544  and  _545
REMARK  221  A    between atoms: _544  and  _547
REMARK  222  A    between atoms: _547  and  _548
REMARK  223  A    between atoms: _558  and  _560
REMARK  224  A    between atoms: _560  and  _561
REMARK  225  A    between atoms: _560  and  _563
REMARK  226  A    between atoms: _563  and  _564
REMARK  227  A    between atoms: _567  and  _569
REMARK  228  A    between atoms: _569  and  _570
REMARK  229  A    between atoms: _569  and  _572
REMARK  230  A    between atoms: _574  and  _576
REMARK  231  A    between atoms: _576  and  _577
REMARK  232  A    between atoms: _576  and  _579
REMARK  233  A    between atoms: _579  and  _580
REMARK  234  A    between atoms: _580  and  _581
REMARK  235  A    between atoms: _586  and  _588
REMARK  236  A    between atoms: _588  and  _589
REMARK  237  A    between atoms: _588  and  _591
REMARK  238  A    between atoms: _591  and  _592
REMARK  239  A    between atoms: _595  and  _597
REMARK  240  A    between atoms: _597  and  _598
REMARK  241  A    between atoms: _597  and  _600
REMARK  242  A    between atoms: _600  and  _601
REMARK  243  A    between atoms: _606  and  _607
REMARK  244  A    between atoms: _609  and  _611
REMARK  245  A    between atoms: _611  and  _612
REMARK  246  A    between atoms: _614  and  _616
REMARK  247  A    between atoms: _616  and  _617
REMARK  248  A    between atoms: _620  and  _622
REMARK  249  A    between atoms: _622  and  _623
REMARK  250  A    between atoms: _622  and  _625
REMARK  251  A    between atoms: _627  and  _629
REMARK  252  A    between atoms: _629  and  _630
REMARK  253  A    between atoms: _629  and  _632
REMARK  254  A    between atoms: _632  and  _633
REMARK  255  A    between atoms: _638  and  _639
REMARK  256  A    between atoms: _641  and  _643
REMARK  257  A    between atoms: _643  and  _644
REMARK  258  A    between atoms: _643  and  _646
REMARK  259  A    between atoms: _646  and  _647
REMARK  260  A    between atoms: _650  and  _652
REMARK  261  A    between atoms: _652  and  _653
REMARK  262  A    between atoms: _652  and  _655
REMARK  263  A    between atoms: _655  and  _656
REMARK  264  A    between atoms: _661  and  _663
REMARK  265  A    between atoms: _663  and  _664
REMARK  266  A    between atoms: _663  and  _666
REMARK  267  A    between atoms: _666  and  _667
REMARK  268  A    between atoms: _673  and  _675
REMARK  269  A    between atoms: _675  and  _676
REMARK  270  A    between atoms: _679  and  _681
REMARK  271  A    between atoms: _681  and  _682
REMARK  272  A    between atoms: _684  and  _686
REMARK  273  A    between atoms: _686  and  _687
REMARK  274  A    between atoms: _686  and  _689
REMARK  275  A    between atoms: _689  and  _690
REMARK  276  A    between atoms: _695  and  _696
REMARK  277  A    between atoms: _698  and  _700
REMARK  278  A    between atoms: _700  and  _701
REMARK  279  A    between atoms: _700  and  _703
REMARK  280  A    between atoms: _703  and  _704
REMARK  281  A    between atoms: _706  and  _708
REMARK  282  A    between atoms: _708  and  _709
REMARK  283  A    between atoms: _711  and  _713
REMARK  284  A    between atoms: _713  and  _714
REMARK                            x       y       z     vdW  Elec       q    Type
REMARK                         _______ _______ _______ _____ _____    ______ ____
ROOT
ATOM      1  O   HOH     1      32.846   0.389  38.321  0.00  0.00    +0.000 OA
ENDROOT
TORSDOF 0
REMARK  Name = ../refined-set-2016/3gnw/3gnw_pocket.pdb
REMARK  284 active torsions:
REMARK  status: ('A' for Active; 'I' for Inactive)
REMARK    1  A    between atoms: _1  and  _3
REMARK    2  A    between atoms: _3  and  _4
REMARK    3  A    between atoms: _3  and  _6
REMARK    4  A    between atoms: _6  and  _7
REMARK    5  A    between atoms: _7  and  _8
REMARK    6  A    between atoms: _8  and  _9
REMARK    7  A    between atoms: _9  and  _10
REMARK    8  A    between atoms: _14  and  _16
REMARK    9  A    between atoms: _16  and  _17
REMARK   10  A    between atoms: _16  and  _19
REMARK   11  A    between atoms: _19  and  _20
REMARK   12  A    between atoms: _20  and  _21
REMARK   13  A    between atoms: _24  and  _26
REMARK   14  A    between atoms: _26  and  _27
REMARK   15  A    between atoms: _26  and  _29
REMARK   16  A    between atoms: _29  and  _30
REMARK   17  A    between atoms: _36  and  _38
REMARK   18  A    between atoms: _38  and  _39
REMARK   19  A    between atoms: _38  and  _41
REMARK   20  A    between atoms: _41  and  _42
REMARK   21  A    between atoms: _42  and  _43
REMARK   22  A    between atoms: _43  and  _44
REMARK   23  A    between atoms: _53  and  _55
REMARK   24  A    between atoms: _55  and  _56
REMARK   25  A    between atoms: _55  and  _58
REMARK   26  A    between atoms: _58  and  _59
REMARK   27  A    between atoms: _62  and  _64
REMARK   28  A    between atoms: _64  and  _65
REMARK   29  A    between atoms: _67  and  _69
REMARK   30  A    between atoms: _69  and  _70
REMARK   31  A    between atoms: _69  and  _72
REMARK   32  A    between atoms: _72  and  _73
REMARK   33  A    between atoms: _79  and  _81
REMARK   34  A    between atoms: _81  and  _82
REMARK   35  A    between atoms: _81  and  _84
REMARK   36  A    between atoms: _84  and  _85
REMARK   37  A    between atoms: _90  and  _91
REMARK   38  A    between atoms: _93  and  _95
REMARK   39  A    between atoms: _95  and  _96
REMARK   40  A    between atoms: _95  and  _98
REMARK   41  A    between atoms: _98  and  _99
REMARK   42  A    between atoms: _102  and  _103
REMARK   43  A    between atoms: _108  and  _110
REMARK   44  A    between atoms: _110  and  _111
REMARK   45  A    between atoms: _110  and  _113
REMARK   46  A    between atoms: _113  and  _114
REMARK   47  A    between atoms: _114  and  _115
REMARK   48  A    between atoms: _115  and  _116
REMARK   49  A    between atoms: _116  and  _117
REMARK   50  A    between atoms: _121  and  _123
REMARK   51  A    between atoms: _123  and  _124
REMARK   52  A    between atoms: _123  and  _126
REMARK   53  A    between atoms: _126  and  _127
REMARK   54  A    between atoms: _127  and  _128
REMARK   55  A    between atoms: _133  and  _135
REMARK   56  A    between atoms: _135  and  _136
REMARK   57  A    between atoms: _135  and  _138
REMARK   58  A    between atoms: _138  and  _139
REMARK   59  A    between atoms: _139  and  _140
REMARK   60  A    between atoms: _140  and  _141
REMARK   61  A    between atoms: _150  and  _152
REMARK   62  A    between atoms: _152  and  _153
REMARK   63  A    between atoms: _152  and  _155
REMARK   64  A    between atoms: _158  and  _160
REMARK   65  A    between atoms: _160  and  _161
REMARK   66  A    between atoms: _160  and  _163
REMARK   67  A    between atoms: _163  and  _164
REMARK   68  A    between atoms: _167  and  _169
REMARK   69  A    between atoms: _169  and  _170
REMARK   70  A    between atoms: _169  and  _172
REMARK   71  A    between atoms: _172  and  _173
REMARK   72  A    between atoms: _179  and  _181
REMARK   73  A    between atoms: _181  and  _182
REMARK   74  A    between atoms: _181  and  _184
REMARK   75  A    between atoms: _184  and  _185
REMARK   76  A    between atoms: _188  and  _190
REMARK   77  A    between atoms: _190  and  _191
REMARK   78  A    between atoms: _190  and  _193
REMARK   79  A    between atoms: _193  and  _194
REMARK   80  A    between atoms: _196  and  _198
REMARK   81  A    between atoms: _198  and  _199
REMARK   82  A    between atoms: _198  and  _201
REMARK   83  A    between atoms: _201  and  _202
REMARK   84  A    between atoms: _205  and  _207
REMARK   85  A    between atoms: _207  and  _208
REMARK   86  A    between atoms: _207  and  _210
REMARK   87  A    between atoms: _210  and  _211
REMARK   88  A    between atoms: _213  and  _215
REMARK   89  A    between atoms: _215  and  _216
REMARK   90  A    between atoms: _215  and  _218
REMARK   91  A    between atoms: _218  and  _219
REMARK   92  A    between atoms: _224  and  _226
REMARK   93  A    between atoms: _226  and  _227
REMARK   94  A    between atoms: _226  and  _229
REMARK   95  A    between atoms: _229  and  _230
REMARK   96  A    between atoms: _233  and  _235
REMARK   97  A    between atoms: _235  and  _236
REMARK   98  A    between atoms: _235  and  _238
REMARK   99  A    between atoms: _238  and  _239
REMARK  100  A    between atoms: _244  and  _246
REMARK  101  A    between atoms: _246  and  _247
REMARK  102  A    between atoms: _249  and  _251
REMARK  103  A    between atoms: _251  and  _252
REMARK  104  A    between atoms: _251  and  _254
REMARK  105  A    between atoms: _254  and  _255
REMARK  106  A    between atoms: _258  and  _260
REMARK  107  A    between atoms: _260  and  _261
REMARK  108  A    between atoms: _260  and  _263
REMARK  109  A    between atoms: _263  and  _264
REMARK  110  A    between atoms: _267  and  _269
REMARK  111  A    between atoms: _269  and  _270
REMARK  112  A    between atoms: _269  and  _272
REMARK  113  A    between atoms: _272  and  _273
REMARK  114  A    between atoms: _276  and  _278
REMARK  115  A    between atoms: _278  and  _279
REMARK  116  A    between atoms: _278  and  _281
REMARK  117  A    between atoms: _281  and  _282
REMARK  118  A    between atoms: _284  and  _286
REMARK  119  A    between atoms: _286  and  _287
REMARK  120  A    between atoms: _286  and  _289
REMARK  121  A    between atoms: _291  and  _293
REMARK  122  A    between atoms: _293  and  _294
REMARK  123  A    between atoms: _293  and  _296
REMARK  124  A    between atoms: _296  and  _297
REMARK  125  A    between atoms: _299  and  _301
REMARK  126  A    between atoms: _301  and  _302
REMARK  127  A    between atoms: _301  and  _304
REMARK  128  A    between atoms: _304  and  _305
REMARK  129  A    between atoms: _307  and  _309
REMARK  130  A    between atoms: _309  and  _310
REMARK  131  A    between atoms: _309  and  _312
REMARK  132  A    between atoms: _312  and  _313
REMARK  133  A    between atoms: _318  and  _320
REMARK  134  A    between atoms: _320  and  _321
REMARK  135  A    between atoms: _320  and  _323
REMARK  136  A    between atoms: _323  and  _324
REMARK  137  A    between atoms: _329  and  _330
REMARK  138  A    between atoms: _332  and  _334
REMARK  139  A    between atoms: _334  and  _335
REMARK  140  A    between atoms: _334  and  _337
REMARK  141  A    between atoms: _337  and  _338
REMARK  142  A    between atoms: _341  and  _343
REMARK  143  A    between atoms: _343  and  _344
REMARK  144  A    between atoms: _343  and  _346
REMARK  145  A    between atoms: _346  and  _347
REMARK  146  A    between atoms: _350  and  _352
REMARK  147  A    between atoms: _352  and  _353
REMARK  148  A    between atoms: _352  and  _355
REMARK  149  A    between atoms: _355  and  _356
REMARK  150  A    between atoms: _356  and  _357
REMARK  151  A    between atoms: _357  and  _358
REMARK  152  A    between atoms: _367  and  _369
REMARK  153  A    between atoms: _369  and  _370
REMARK  154  A    between atoms: _369  and  _372
REMARK  155  A    between atoms: _372  and  _373
REMARK  156  A    between atoms: _377  and  _378
REMARK  157  A    between atoms: _383  and  _385
REMARK  158  A    between atoms: _385  and  _386
REMARK  159  A    between atoms: _385  and  _388
REMARK  160  A    between atoms: _388  and  _389
REMARK  161  A    between atoms: _389  and  _390
REMARK  162  A    between atoms: _390  and  _391
REMARK  163  A    between atoms: _400  and  _402
REMARK  164  A    between atoms: _402  and  _403
REMARK  165  A    between atoms: _402  and  _405
REMARK  166  A    between atoms: _405  and  _406
REMARK  167  A    between atoms: _406  and  _407
REMARK  168  A    between atoms: _410  and  _412
REMARK  169  A    between atoms: _412  and  _413
REMARK  170  A    between atoms: _412  and  _415
REMARK  171  A    between atoms: _415  and  _416
REMARK  172  A    between atoms: _419  and  _421
REMARK  173  A    between atoms: _421  and  _422
REMARK  174  A    between atoms: _421  and  _424
REMARK  175  A    between atoms: _424  and  _425
REMARK  176  A    between atoms: _430  and  _432
REMARK  177  A    between atoms: _432  and  _433
REMARK  178  A    between atoms: _432  and  _435
REMARK  179  A    between atoms: _435  and  _436
REMARK  180  A    between atoms: _438  and  _440
REMARK  181  A    between atoms: _440  and  _441
REMARK  182  A    between atoms: _440  and  _443
REMARK  183  A    between atoms: _443  and  _444
REMARK  184  A    between atoms: _454  and  _456
REMARK  185  A    between atoms: _456  and  _457
REMARK  186  A    between atoms: _456  and  _459
REMARK  187  A    between atoms: _459  and  _460
REMARK  188  A    between atoms: _463  and  _465
REMARK  189  A    between atoms: _465  and  _466
REMARK  190  A    between atoms: _468  and  _470
REMARK  191  A    between atoms: _470  and  _471
REMARK  192  A    between atoms: _470  and  _473
REMARK  193  A    between atoms: _473  and  _474
REMARK  194  A    between atoms: _479  and  _481
REMARK  195  A    between atoms: _481  and  _482
REMARK  196  A    between atoms: _481  and  _484
REMARK  197  A    between atoms: _484  and  _485
REMARK  198  A    between atoms: _488  and  _490
REMARK  199  A    between atoms: _490  and  _491
REMARK  200  A    between atoms: _490  and  _493
REMARK  201  A    between atoms: _493  and  _494
REMARK  202  A    between atoms: _497  and  _499
REMARK  203  A    between atoms: _499  and  _500
REMARK  204  A    between atoms: _499  and  _502
REMARK  205  A    between atoms: _502  and  _503
REMARK  206  A    between atoms: _503  and  _504
REMARK  207  A    between atoms: _506  and  _508
REMARK  208  A    between atoms: _508  and  _509
REMARK  209  A    between atoms: _508  and  _511
REMARK  210  A    between atoms: _511  and  _512
REMARK  211  A    between atoms: _517  and  _518
REMARK  212  A    between atoms: _520  and  _522
REMARK  213  A    between atoms: _522  and  _523
REMARK  214  A    between atoms: _527  and  _528
REMARK  215  A    between atoms: _533  and  _535
REMARK  216  A    between atoms: _535  and  _536
REMARK  217  A    between atoms: _535  and  _538
REMARK  218  A    between atoms: _538  and  _539
REMARK  219  A    between atoms: _542  and  _544
REMARK  220  A    between atoms: _544  and  _545
REMARK  221  A    between atoms: _544  and  _547
REMARK  222  A    between atoms: _547  and  _548
REMARK  223  A    between atoms: _558  and  _560
REMARK  224  A    between atoms: _560  and  _561
REMARK  225  A    between atoms: _560  and  _563
REMARK  226  A    between atoms: _563  and  _564
REMARK  227  A    between atoms: _567  and  _569
REMARK  228  A    between atoms: _569  and  _570
REMARK  229  A    between atoms: _569  and  _572
REMARK  230  A    between atoms: _574  and  _576
REMARK  231  A    between atoms: _576  and  _577
REMARK  232  A    between atoms: _576  and  _579
REMARK  233  A    between atoms: _579  and  _580
REMARK  234  A    between atoms: _580  and  _581
REMARK  235  A    between atoms: _586  and  _588
REMARK  236  A    between atoms: _588  and  _589
REMARK  237  A    between atoms: _588  and  _591
REMARK  238  A    between atoms: _591  and  _592
REMARK  239  A    between atoms: _595  and  _597
REMARK  240  A    between atoms: _597  and  _598
REMARK  241  A    between atoms: _597  and  _600
REMARK  242  A    between atoms: _600  and  _601
REMARK  243  A    between atoms: _606  and  _607
REMARK  244  A    between atoms: _609  and  _611
REMARK  245  A    between atoms: _611  and  _612
REMARK  246  A    between atoms: _614  and  _616
REMARK  247  A    between atoms: _616  and  _617
REMARK  248  A    between atoms: _620  and  _622
REMARK  249  A    between atoms: _622  and  _623
REMARK  250  A    between atoms: _622  and  _625
REMARK  251  A    between atoms: _627  and  _629
REMARK  252  A    between atoms: _629  and  _630
REMARK  253  A    between atoms: _629  and  _632
REMARK  254  A    between atoms: _632  and  _633
REMARK  255  A    between atoms: _638  and  _639
REMARK  256  A    between atoms: _641  and  _643
REMARK  257  A    between atoms: _643  and  _644
REMARK  258  A    between atoms: _643  and  _646
REMARK  259  A    between atoms: _646  and  _647
REMARK  260  A    between atoms: _650  and  _652
REMARK  261  A    between atoms: _652  and  _653
REMARK  262  A    between atoms: _652  and  _655
REMARK  263  A    between atoms: _655  and  _656
REMARK  264  A    between atoms: _661  and  _663
REMARK  265  A    between atoms: _663  and  _664
REMARK  266  A    between atoms: _663  and  _666
REMARK  267  A    between atoms: _666  and  _667
REMARK  268  A    between atoms: _673  and  _675
REMARK  269  A    between atoms: _675  and  _676
REMARK  270  A    between atoms: _679  and  _681
REMARK  271  A    between atoms: _681  and  _682
REMARK  272  A    between atoms: _684  and  _686
REMARK  273  A    between atoms: _686  and  _687
REMARK  274  A    between atoms: _686  and  _689
REMARK  275  A    between atoms: _689  and  _690
REMARK  276  A    between atoms: _695  and  _696
REMARK  277  A    between atoms: _698  and  _700
REMARK  278  A    between atoms: _700  and  _701
REMARK  279  A    between atoms: _700  and  _703
REMARK  280  A    between atoms: _703  and  _704
REMARK  281  A    between atoms: _706  and  _708
REMARK  282  A    between atoms: _708  and  _709
REMARK  283  A    between atoms: _711  and  _713
REMARK  284  A    between atoms: _713  and  _714
REMARK                            x       y       z     vdW  Elec       q    Type
REMARK                         _______ _______ _______ _____ _____    ______ ____
ROOT
ATOM      1  O   HOH     1      27.401  -0.272  36.304  0.00  0.00    +0.000 OA
ENDROOT
TORSDOF 0
REMARK  Name = ../refined-set-2016/3gnw/3gnw_pocket.pdb
REMARK  284 active torsions:
REMARK  status: ('A' for Active; 'I' for Inactive)
REMARK    1  A    between atoms: _1  and  _3
REMARK    2  A    between atoms: _3  and  _4
REMARK    3  A    between atoms: _3  and  _6
REMARK    4  A    between atoms: _6  and  _7
REMARK    5  A    between atoms: _7  and  _8
REMARK    6  A    between atoms: _8  and  _9
REMARK    7  A    between atoms: _9  and  _10
REMARK    8  A    between atoms: _14  and  _16
REMARK    9  A    between atoms: _16  and  _17
REMARK   10  A    between atoms: _16  and  _19
REMARK   11  A    between atoms: _19  and  _20
REMARK   12  A    between atoms: _20  and  _21
REMARK   13  A    between atoms: _24  and  _26
REMARK   14  A    between atoms: _26  and  _27
REMARK   15  A    between atoms: _26  and  _29
REMARK   16  A    between atoms: _29  and  _30
REMARK   17  A    between atoms: _36  and  _38
REMARK   18  A    between atoms: _38  and  _39
REMARK   19  A    between atoms: _38  and  _41
REMARK   20  A    between atoms: _41  and  _42
REMARK   21  A    between atoms: _42  and  _43
REMARK   22  A    between atoms: _43  and  _44
REMARK   23  A    between atoms: _53  and  _55
REMARK   24  A    between atoms: _55  and  _56
REMARK   25  A    between atoms: _55  and  _58
REMARK   26  A    between atoms: _58  and  _59
REMARK   27  A    between atoms: _62  and  _64
REMARK   28  A    between atoms: _64  and  _65
REMARK   29  A    between atoms: _67  and  _69
REMARK   30  A    between atoms: _69  and  _70
REMARK   31  A    between atoms: _69  and  _72
REMARK   32  A    between atoms: _72  and  _73
REMARK   33  A    between atoms: _79  and  _81
REMARK   34  A    between atoms: _81  and  _82
REMARK   35  A    between atoms: _81  and  _84
REMARK   36  A    between atoms: _84  and  _85
REMARK   37  A    between atoms: _90  and  _91
REMARK   38  A    between atoms: _93  and  _95
REMARK   39  A    between atoms: _95  and  _96
REMARK   40  A    between atoms: _95  and  _98
REMARK   41  A    between atoms: _98  and  _99
REMARK   42  A    between atoms: _102  and  _103
REMARK   43  A    between atoms: _108  and  _110
REMARK   44  A    between atoms: _110  and  _111
REMARK   45  A    between atoms: _110  and  _113
REMARK   46  A    between atoms: _113  and  _114
REMARK   47  A    between atoms: _114  and  _115
REMARK   48  A    between atoms: _115  and  _116
REMARK   49  A    between atoms: _116  and  _117
REMARK   50  A    between atoms: _121  and  _123
REMARK   51  A    between atoms: _123  and  _124
REMARK   52  A    between atoms: _123  and  _126
REMARK   53  A    between atoms: _126  and  _127
REMARK   54  A    between atoms: _127  and  _128
REMARK   55  A    between atoms: _133  and  _135
REMARK   56  A    between atoms: _135  and  _136
REMARK   57  A    between atoms: _135  and  _138
REMARK   58  A    between atoms: _138  and  _139
REMARK   59  A    between atoms: _139  and  _140
REMARK   60  A    between atoms: _140  and  _141
REMARK   61  A    between atoms: _150  and  _152
REMARK   62  A    between atoms: _152  and  _153
REMARK   63  A    between atoms: _152  and  _155
REMARK   64  A    between atoms: _158  and  _160
REMARK   65  A    between atoms: _160  and  _161
REMARK   66  A    between atoms: _160  and  _163
REMARK   67  A    between atoms: _163  and  _164
REMARK   68  A    between atoms: _167  and  _169
REMARK   69  A    between atoms: _169  and  _170
REMARK   70  A    between atoms: _169  and  _172
REMARK   71  A    between atoms: _172  and  _173
REMARK   72  A    between atoms: _179  and  _181
REMARK   73  A    between atoms: _181  and  _182
REMARK   74  A    between atoms: _181  and  _184
REMARK   75  A    between atoms: _184  and  _185
REMARK   76  A    between atoms: _188  and  _190
REMARK   77  A    between atoms: _190  and  _191
REMARK   78  A    between atoms: _190  and  _193
REMARK   79  A    between atoms: _193  and  _194
REMARK   80  A    between atoms: _196  and  _198
REMARK   81  A    between atoms: _198  and  _199
REMARK   82  A    between atoms: _198  and  _201
REMARK   83  A    between atoms: _201  and  _202
REMARK   84  A    between atoms: _205  and  _207
REMARK   85  A    between atoms: _207  and  _208
REMARK   86  A    between atoms: _207  and  _210
REMARK   87  A    between atoms: _210  and  _211
REMARK   88  A    between atoms: _213  and  _215
REMARK   89  A    between atoms: _215  and  _216
REMARK   90  A    between atoms: _215  and  _218
REMARK   91  A    between atoms: _218  and  _219
REMARK   92  A    between atoms: _224  and  _226
REMARK   93  A    between atoms: _226  and  _227
REMARK   94  A    between atoms: _226  and  _229
REMARK   95  A    between atoms: _229  and  _230
REMARK   96  A    between atoms: _233  and  _235
REMARK   97  A    between atoms: _235  and  _236
REMARK   98  A    between atoms: _235  and  _238
REMARK   99  A    between atoms: _238  and  _239
REMARK  100  A    between atoms: _244  and  _246
REMARK  101  A    between atoms: _246  and  _247
REMARK  102  A    between atoms: _249  and  _251
REMARK  103  A    between atoms: _251  and  _252
REMARK  104  A    between atoms: _251  and  _254
REMARK  105  A    between atoms: _254  and  _255
REMARK  106  A    between atoms: _258  and  _260
REMARK  107  A    between atoms: _260  and  _261
REMARK  108  A    between atoms: _260  and  _263
REMARK  109  A    between atoms: _263  and  _264
REMARK  110  A    between atoms: _267  and  _269
REMARK  111  A    between atoms: _269  and  _270
REMARK  112  A    between atoms: _269  and  _272
REMARK  113  A    between atoms: _272  and  _273
REMARK  114  A    between atoms: _276  and  _278
REMARK  115  A    between atoms: _278  and  _279
REMARK  116  A    between atoms: _278  and  _281
REMARK  117  A    between atoms: _281  and  _282
REMARK  118  A    between atoms: _284  and  _286
REMARK  119  A    between atoms: _286  and  _287
REMARK  120  A    between atoms: _286  and  _289
REMARK  121  A    between atoms: _291  and  _293
REMARK  122  A    between atoms: _293  and  _294
REMARK  123  A    between atoms: _293  and  _296
REMARK  124  A    between atoms: _296  and  _297
REMARK  125  A    between atoms: _299  and  _301
REMARK  126  A    between atoms: _301  and  _302
REMARK  127  A    between atoms: _301  and  _304
REMARK  128  A    between atoms: _304  and  _305
REMARK  129  A    between atoms: _307  and  _309
REMARK  130  A    between atoms: _309  and  _310
REMARK  131  A    between atoms: _309  and  _312
REMARK  132  A    between atoms: _312  and  _313
REMARK  133  A    between atoms: _318  and  _320
REMARK  134  A    between atoms: _320  and  _321
REMARK  135  A    between atoms: _320  and  _323
REMARK  136  A    between atoms: _323  and  _324
REMARK  137  A    between atoms: _329  and  _330
REMARK  138  A    between atoms: _332  and  _334
REMARK  139  A    between atoms: _334  and  _335
REMARK  140  A    between atoms: _334  and  _337
REMARK  141  A    between atoms: _337  and  _338
REMARK  142  A    between atoms: _341  and  _343
REMARK  143  A    between atoms: _343  and  _344
REMARK  144  A    between atoms: _343  and  _346
REMARK  145  A    between atoms: _346  and  _347
REMARK  146  A    between atoms: _350  and  _352
REMARK  147  A    between atoms: _352  and  _353
REMARK  148  A    between atoms: _352  and  _355
REMARK  149  A    between atoms: _355  and  _356
REMARK  150  A    between atoms: _356  and  _357
REMARK  151  A    between atoms: _357  and  _358
REMARK  152  A    between atoms: _367  and  _369
REMARK  153  A    between atoms: _369  and  _370
REMARK  154  A    between atoms: _369  and  _372
REMARK  155  A    between atoms: _372  and  _373
REMARK  156  A    between atoms: _377  and  _378
REMARK  157  A    between atoms: _383  and  _385
REMARK  158  A    between atoms: _385  and  _386
REMARK  159  A    between atoms: _385  and  _388
REMARK  160  A    between atoms: _388  and  _389
REMARK  161  A    between atoms: _389  and  _390
REMARK  162  A    between atoms: _390  and  _391
REMARK  163  A    between atoms: _400  and  _402
REMARK  164  A    between atoms: _402  and  _403
REMARK  165  A    between atoms: _402  and  _405
REMARK  166  A    between atoms: _405  and  _406
REMARK  167  A    between atoms: _406  and  _407
REMARK  168  A    between atoms: _410  and  _412
REMARK  169  A    between atoms: _412  and  _413
REMARK  170  A    between atoms: _412  and  _415
REMARK  171  A    between atoms: _415  and  _416
REMARK  172  A    between atoms: _419  and  _421
REMARK  173  A    between atoms: _421  and  _422
REMARK  174  A    between atoms: _421  and  _424
REMARK  175  A    between atoms: _424  and  _425
REMARK  176  A    between atoms: _430  and  _432
REMARK  177  A    between atoms: _432  and  _433
REMARK  178  A    between atoms: _432  and  _435
REMARK  179  A    between atoms: _435  and  _436
REMARK  180  A    between atoms: _438  and  _440
REMARK  181  A    between atoms: _440  and  _441
REMARK  182  A    between atoms: _440  and  _443
REMARK  183  A    between atoms: _443  and  _444
REMARK  184  A    between atoms: _454  and  _456
REMARK  185  A    between atoms: _456  and  _457
REMARK  186  A    between atoms: _456  and  _459
REMARK  187  A    between atoms: _459  and  _460
REMARK  188  A    between atoms: _463  and  _465
REMARK  189  A    between atoms: _465  and  _466
REMARK  190  A    between atoms: _468  and  _470
REMARK  191  A    between atoms: _470  and  _471
REMARK  192  A    between atoms: _470  and  _473
REMARK  193  A    between atoms: _473  and  _474
REMARK  194  A    between atoms: _479  and  _481
REMARK  195  A    between atoms: _481  and  _482
REMARK  196  A    between atoms: _481  and  _484
REMARK  197  A    between atoms: _484  and  _485
REMARK  198  A    between atoms: _488  and  _490
REMARK  199  A    between atoms: _490  and  _491
REMARK  200  A    between atoms: _490  and  _493
REMARK  201  A    between atoms: _493  and  _494
REMARK  202  A    between atoms: _497  and  _499
REMARK  203  A    between atoms: _499  and  _500
REMARK  204  A    between atoms: _499  and  _502
REMARK  205  A    between atoms: _502  and  _503
REMARK  206  A    between atoms: _503  and  _504
REMARK  207  A    between atoms: _506  and  _508
REMARK  208  A    between atoms: _508  and  _509
REMARK  209  A    between atoms: _508  and  _511
REMARK  210  A    between atoms: _511  and  _512
REMARK  211  A    between atoms: _517  and  _518
REMARK  212  A    between atoms: _520  and  _522
REMARK  213  A    between atoms: _522  and  _523
REMARK  214  A    between atoms: _527  and  _528
REMARK  215  A    between atoms: _533  and  _535
REMARK  216  A    between atoms: _535  and  _536
REMARK  217  A    between atoms: _535  and  _538
REMARK  218  A    between atoms: _538  and  _539
REMARK  219  A    between atoms: _542  and  _544
REMARK  220  A    between atoms: _544  and  _545
REMARK  221  A    between atoms: _544  and  _547
REMARK  222  A    between atoms: _547  and  _548
REMARK  223  A    between atoms: _558  and  _560
REMARK  224  A    between atoms: _560  and  _561
REMARK  225  A    between atoms: _560  and  _563
REMARK  226  A    between atoms: _563  and  _564
REMARK  227  A    between atoms: _567  and  _569
REMARK  228  A    between atoms: _569  and  _570
REMARK  229  A    between atoms: _569  and  _572
REMARK  230  A    between atoms: _574  and  _576
REMARK  231  A    between atoms: _576  and  _577
REMARK  232  A    between atoms: _576  and  _579
REMARK  233  A    between atoms: _579  and  _580
REMARK  234  A    between atoms: _580  and  _581
REMARK  235  A    between atoms: _586  and  _588
REMARK  236  A    between atoms: _588  and  _589
REMARK  237  A    between atoms: _588  and  _591
REMARK  238  A    between atoms: _591  and  _592
REMARK  239  A    between atoms: _595  and  _597
REMARK  240  A    between atoms: _597  and  _598
REMARK  241  A    between atoms: _597  and  _600
REMARK  242  A    between atoms: _600  and  _601
REMARK  243  A    between atoms: _606  and  _607
REMARK  244  A    between atoms: _609  and  _611
REMARK  245  A    between atoms: _611  and  _612
REMARK  246  A    between atoms: _614  and  _616
REMARK  247  A    between atoms: _616  and  _617
REMARK  248  A    between atoms: _620  and  _622
REMARK  249  A    between atoms: _622  and  _623
REMARK  250  A    between atoms: _622  and  _625
REMARK  251  A    between atoms: _627  and  _629
REMARK  252  A    between atoms: _629  and  _630
REMARK  253  A    between atoms: _629  and  _632
REMARK  254  A    between atoms: _632  and  _633
REMARK  255  A    between atoms: _638  and  _639
REMARK  256  A    between atoms: _641  and  _643
REMARK  257  A    between atoms: _643  and  _644
REMARK  258  A    between atoms: _643  and  _646
REMARK  259  A    between atoms: _646  and  _647
REMARK  260  A    between atoms: _650  and  _652
REMARK  261  A    between atoms: _652  and  _653
REMARK  262  A    between atoms: _652  and  _655
REMARK  263  A    between atoms: _655  and  _656
REMARK  264  A    between atoms: _661  and  _663
REMARK  265  A    between atoms: _663  and  _664
REMARK  266  A    between atoms: _663  and  _666
REMARK  267  A    between atoms: _666  and  _667
REMARK  268  A    between atoms: _673  and  _675
REMARK  269  A    between atoms: _675  and  _676
REMARK  270  A    between atoms: _679  and  _681
REMARK  271  A    between atoms: _681  and  _682
REMARK  272  A    between atoms: _684  and  _686
REMARK  273  A    between atoms: _686  and  _687
REMARK  274  A    between atoms: _686  and  _689
REMARK  275  A    between atoms: _689  and  _690
REMARK  276  A    between atoms: _695  and  _696
REMARK  277  A    between atoms: _698  and  _700
REMARK  278  A    between atoms: _700  and  _701
REMARK  279  A    between atoms: _700  and  _703
REMARK  280  A    between atoms: _703  and  _704
REMARK  281  A    between atoms: _706  and  _708
REMARK  282  A    between atoms: _708  and  _709
REMARK  283  A    between atoms: _711  and  _713
REMARK  284  A    between atoms: _713  and  _714
REMARK                            x       y       z     vdW  Elec       q    Type
REMARK                         _______ _______ _______ _____ _____    ______ ____
ROOT
ATOM      1  O   HOH     1      24.549  -4.664  37.820  0.00  0.00    +0.000 OA
ENDROOT
TORSDOF 0
REMARK  Name = ../refined-set-2016/3gnw/3gnw_pocket.pdb
REMARK  284 active torsions:
REMARK  status: ('A' for Active; 'I' for Inactive)
REMARK    1  A    between atoms: _1  and  _3
REMARK    2  A    between atoms: _3  and  _4
REMARK    3  A    between atoms: _3  and  _6
REMARK    4  A    between atoms: _6  and  _7
REMARK    5  A    between atoms: _7  and  _8
REMARK    6  A    between atoms: _8  and  _9
REMARK    7  A    between atoms: _9  and  _10
REMARK    8  A    between atoms: _14  and  _16
REMARK    9  A    between atoms: _16  and  _17
REMARK   10  A    between atoms: _16  and  _19
REMARK   11  A    between atoms: _19  and  _20
REMARK   12  A    between atoms: _20  and  _21
REMARK   13  A    between atoms: _24  and  _26
REMARK   14  A    between atoms: _26  and  _27
REMARK   15  A    between atoms: _26  and  _29
REMARK   16  A    between atoms: _29  and  _30
REMARK   17  A    between atoms: _36  and  _38
REMARK   18  A    between atoms: _38  and  _39
REMARK   19  A    between atoms: _38  and  _41
REMARK   20  A    between atoms: _41  and  _42
REMARK   21  A    between atoms: _42  and  _43
REMARK   22  A    between atoms: _43  and  _44
REMARK   23  A    between atoms: _53  and  _55
REMARK   24  A    between atoms: _55  and  _56
REMARK   25  A    between atoms: _55  and  _58
REMARK   26  A    between atoms: _58  and  _59
REMARK   27  A    between atoms: _62  and  _64
REMARK   28  A    between atoms: _64  and  _65
REMARK   29  A    between atoms: _67  and  _69
REMARK   30  A    between atoms: _69  and  _70
REMARK   31  A    between atoms: _69  and  _72
REMARK   32  A    between atoms: _72  and  _73
REMARK   33  A    between atoms: _79  and  _81
REMARK   34  A    between atoms: _81  and  _82
REMARK   35  A    between atoms: _81  and  _84
REMARK   36  A    between atoms: _84  and  _85
REMARK   37  A    between atoms: _90  and  _91
REMARK   38  A    between atoms: _93  and  _95
REMARK   39  A    between atoms: _95  and  _96
REMARK   40  A    between atoms: _95  and  _98
REMARK   41  A    between atoms: _98  and  _99
REMARK   42  A    between atoms: _102  and  _103
REMARK   43  A    between atoms: _108  and  _110
REMARK   44  A    between atoms: _110  and  _111
REMARK   45  A    between atoms: _110  and  _113
REMARK   46  A    between atoms: _113  and  _114
REMARK   47  A    between atoms: _114  and  _115
REMARK   48  A    between atoms: _115  and  _116
REMARK   49  A    between atoms: _116  and  _117
REMARK   50  A    between atoms: _121  and  _123
REMARK   51  A    between atoms: _123  and  _124
REMARK   52  A    between atoms: _123  and  _126
REMARK   53  A    between atoms: _126  and  _127
REMARK   54  A    between atoms: _127  and  _128
REMARK   55  A    between atoms: _133  and  _135
REMARK   56  A    between atoms: _135  and  _136
REMARK   57  A    between atoms: _135  and  _138
REMARK   58  A    between atoms: _138  and  _139
REMARK   59  A    between atoms: _139  and  _140
REMARK   60  A    between atoms: _140  and  _141
REMARK   61  A    between atoms: _150  and  _152
REMARK   62  A    between atoms: _152  and  _153
REMARK   63  A    between atoms: _152  and  _155
REMARK   64  A    between atoms: _158  and  _160
REMARK   65  A    between atoms: _160  and  _161
REMARK   66  A    between atoms: _160  and  _163
REMARK   67  A    between atoms: _163  and  _164
REMARK   68  A    between atoms: _167  and  _169
REMARK   69  A    between atoms: _169  and  _170
REMARK   70  A    between atoms: _169  and  _172
REMARK   71  A    between atoms: _172  and  _173
REMARK   72  A    between atoms: _179  and  _181
REMARK   73  A    between atoms: _181  and  _182
REMARK   74  A    between atoms: _181  and  _184
REMARK   75  A    between atoms: _184  and  _185
REMARK   76  A    between atoms: _188  and  _190
REMARK   77  A    between atoms: _190  and  _191
REMARK   78  A    between atoms: _190  and  _193
REMARK   79  A    between atoms: _193  and  _194
REMARK   80  A    between atoms: _196  and  _198
REMARK   81  A    between atoms: _198  and  _199
REMARK   82  A    between atoms: _198  and  _201
REMARK   83  A    between atoms: _201  and  _202
REMARK   84  A    between atoms: _205  and  _207
REMARK   85  A    between atoms: _207  and  _208
REMARK   86  A    between atoms: _207  and  _210
REMARK   87  A    between atoms: _210  and  _211
REMARK   88  A    between atoms: _213  and  _215
REMARK   89  A    between atoms: _215  and  _216
REMARK   90  A    between atoms: _215  and  _218
REMARK   91  A    between atoms: _218  and  _219
REMARK   92  A    between atoms: _224  and  _226
REMARK   93  A    between atoms: _226  and  _227
REMARK   94  A    between atoms: _226  and  _229
REMARK   95  A    between atoms: _229  and  _230
REMARK   96  A    between atoms: _233  and  _235
REMARK   97  A    between atoms: _235  and  _236
REMARK   98  A    between atoms: _235  and  _238
REMARK   99  A    between atoms: _238  and  _239
REMARK  100  A    between atoms: _244  and  _246
REMARK  101  A    between atoms: _246  and  _247
REMARK  102  A    between atoms: _249  and  _251
REMARK  103  A    between atoms: _251  and  _252
REMARK  104  A    between atoms: _251  and  _254
REMARK  105  A    between atoms: _254  and  _255
REMARK  106  A    between atoms: _258  and  _260
REMARK  107  A    between atoms: _260  and  _261
REMARK  108  A    between atoms: _260  and  _263
REMARK  109  A    between atoms: _263  and  _264
REMARK  110  A    between atoms: _267  and  _269
REMARK  111  A    between atoms: _269  and  _270
REMARK  112  A    between atoms: _269  and  _272
REMARK  113  A    between atoms: _272  and  _273
REMARK  114  A    between atoms: _276  and  _278
REMARK  115  A    between atoms: _278  and  _279
REMARK  116  A    between atoms: _278  and  _281
REMARK  117  A    between atoms: _281  and  _282
REMARK  118  A    between atoms: _284  and  _286
REMARK  119  A    between atoms: _286  and  _287
REMARK  120  A    between atoms: _286  and  _289
REMARK  121  A    between atoms: _291  and  _293
REMARK  122  A    between atoms: _293  and  _294
REMARK  123  A    between atoms: _293  and  _296
REMARK  124  A    between atoms: _296  and  _297
REMARK  125  A    between atoms: _299  and  _301
REMARK  126  A    between atoms: _301  and  _302
REMARK  127  A    between atoms: _301  and  _304
REMARK  128  A    between atoms: _304  and  _305
REMARK  129  A    between atoms: _307  and  _309
REMARK  130  A    between atoms: _309  and  _310
REMARK  131  A    between atoms: _309  and  _312
REMARK  132  A    between atoms: _312  and  _313
REMARK  133  A    between atoms: _318  and  _320
REMARK  134  A    between atoms: _320  and  _321
REMARK  135  A    between atoms: _320  and  _323
REMARK  136  A    between atoms: _323  and  _324
REMARK  137  A    between atoms: _329  and  _330
REMARK  138  A    between atoms: _332  and  _334
REMARK  139  A    between atoms: _334  and  _335
REMARK  140  A    between atoms: _334  and  _337
REMARK  141  A    between atoms: _337  and  _338
REMARK  142  A    between atoms: _341  and  _343
REMARK  143  A    between atoms: _343  and  _344
REMARK  144  A    between atoms: _343  and  _346
REMARK  145  A    between atoms: _346  and  _347
REMARK  146  A    between atoms: _350  and  _352
REMARK  147  A    between atoms: _352  and  _353
REMARK  148  A    between atoms: _352  and  _355
REMARK  149  A    between atoms: _355  and  _356
REMARK  150  A    between atoms: _356  and  _357
REMARK  151  A    between atoms: _357  and  _358
REMARK  152  A    between atoms: _367  and  _369
REMARK  153  A    between atoms: _369  and  _370
REMARK  154  A    between atoms: _369  and  _372
REMARK  155  A    between atoms: _372  and  _373
REMARK  156  A    between atoms: _377  and  _378
REMARK  157  A    between atoms: _383  and  _385
REMARK  158  A    between atoms: _385  and  _386
REMARK  159  A    between atoms: _385  and  _388
REMARK  160  A    between atoms: _388  and  _389
REMARK  161  A    between atoms: _389  and  _390
REMARK  162  A    between atoms: _390  and  _391
REMARK  163  A    between atoms: _400  and  _402
REMARK  164  A    between atoms: _402  and  _403
REMARK  165  A    between atoms: _402  and  _405
REMARK  166  A    between atoms: _405  and  _406
REMARK  167  A    between atoms: _406  and  _407
REMARK  168  A    between atoms: _410  and  _412
REMARK  169  A    between atoms: _412  and  _413
REMARK  170  A    between atoms: _412  and  _415
REMARK  171  A    between atoms: _415  and  _416
REMARK  172  A    between atoms: _419  and  _421
REMARK  173  A    between atoms: _421  and  _422
REMARK  174  A    between atoms: _421  and  _424
REMARK  175  A    between atoms: _424  and  _425
REMARK  176  A    between atoms: _430  and  _432
REMARK  177  A    between atoms: _432  and  _433
REMARK  178  A    between atoms: _432  and  _435
REMARK  179  A    between atoms: _435  and  _436
REMARK  180  A    between atoms: _438  and  _440
REMARK  181  A    between atoms: _440  and  _441
REMARK  182  A    between atoms: _440  and  _443
REMARK  183  A    between atoms: _443  and  _444
REMARK  184  A    between atoms: _454  and  _456
REMARK  185  A    between atoms: _456  and  _457
REMARK  186  A    between atoms: _456  and  _459
REMARK  187  A    between atoms: _459  and  _460
REMARK  188  A    between atoms: _463  and  _465
REMARK  189  A    between atoms: _465  and  _466
REMARK  190  A    between atoms: _468  and  _470
REMARK  191  A    between atoms: _470  and  _471
REMARK  192  A    between atoms: _470  and  _473
REMARK  193  A    between atoms: _473  and  _474
REMARK  194  A    between atoms: _479  and  _481
REMARK  195  A    between atoms: _481  and  _482
REMARK  196  A    between atoms: _481  and  _484
REMARK  197  A    between atoms: _484  and  _485
REMARK  198  A    between atoms: _488  and  _490
REMARK  199  A    between atoms: _490  and  _491
REMARK  200  A    between atoms: _490  and  _493
REMARK  201  A    between atoms: _493  and  _494
REMARK  202  A    between atoms: _497  and  _499
REMARK  203  A    between atoms: _499  and  _500
REMARK  204  A    between atoms: _499  and  _502
REMARK  205  A    between atoms: _502  and  _503
REMARK  206  A    between atoms: _503  and  _504
REMARK  207  A    between atoms: _506  and  _508
REMARK  208  A    between atoms: _508  and  _509
REMARK  209  A    between atoms: _508  and  _511
REMARK  210  A    between atoms: _511  and  _512
REMARK  211  A    between atoms: _517  and  _518
REMARK  212  A    between atoms: _520  and  _522
REMARK  213  A    between atoms: _522  and  _523
REMARK  214  A    between atoms: _527  and  _528
REMARK  215  A    between atoms: _533  and  _535
REMARK  216  A    between atoms: _535  and  _536
REMARK  217  A    between atoms: _535  and  _538
REMARK  218  A    between atoms: _538  and  _539
REMARK  219  A    between atoms: _542  and  _544
REMARK  220  A    between atoms: _544  and  _545
REMARK  221  A    between atoms: _544  and  _547
REMARK  222  A    between atoms: _547  and  _548
REMARK  223  A    between atoms: _558  and  _560
REMARK  224  A    between atoms: _560  and  _561
REMARK  225  A    between atoms: _560  and  _563
REMARK  226  A    between atoms: _563  and  _564
REMARK  227  A    between atoms: _567  and  _569
REMARK  228  A    between atoms: _569  and  _570
REMARK  229  A    between atoms: _569  and  _572
REMARK  230  A    between atoms: _574  and  _576
REMARK  231  A    between atoms: _576  and  _577
REMARK  232  A    between atoms: _576  and  _579
REMARK  233  A    between atoms: _579  and  _580
REMARK  234  A    between atoms: _580  and  _581
REMARK  235  A    between atoms: _586  and  _588
REMARK  236  A    between atoms: _588  and  _589
REMARK  237  A    between atoms: _588  and  _591
REMARK  238  A    between atoms: _591  and  _592
REMARK  239  A    between atoms: _595  and  _597
REMARK  240  A    between atoms: _597  and  _598
REMARK  241  A    between atoms: _597  and  _600
REMARK  242  A    between atoms: _600  and  _601
REMARK  243  A    between atoms: _606  and  _607
REMARK  244  A    between atoms: _609  and  _611
REMARK  245  A    between atoms: _611  and  _612
REMARK  246  A    between atoms: _614  and  _616
REMARK  247  A    between atoms: _616  and  _617
REMARK  248  A    between atoms: _620  and  _622
REMARK  249  A    between atoms: _622  and  _623
REMARK  250  A    between atoms: _622  and  _625
REMARK  251  A    between atoms: _627  and  _629
REMARK  252  A    between atoms: _629  and  _630
REMARK  253  A    between atoms: _629  and  _632
REMARK  254  A    between atoms: _632  and  _633
REMARK  255  A    between atoms: _638  and  _639
REMARK  256  A    between atoms: _641  and  _643
REMARK  257  A    between atoms: _643  and  _644
REMARK  258  A    between atoms: _643  and  _646
REMARK  259  A    between atoms: _646  and  _647
REMARK  260  A    between atoms: _650  and  _652
REMARK  261  A    between atoms: _652  and  _653
REMARK  262  A    between atoms: _652  and  _655
REMARK  263  A    between atoms: _655  and  _656
REMARK  264  A    between atoms: _661  and  _663
REMARK  265  A    between atoms: _663  and  _664
REMARK  266  A    between atoms: _663  and  _666
REMARK  267  A    between atoms: _666  and  _667
REMARK  268  A    between atoms: _673  and  _675
REMARK  269  A    between atoms: _675  and  _676
REMARK  270  A    between atoms: _679  and  _681
REMARK  271  A    between atoms: _681  and  _682
REMARK  272  A    between atoms: _684  and  _686
REMARK  273  A    between atoms: _686  and  _687
REMARK  274  A    between atoms: _686  and  _689
REMARK  275  A    between atoms: _689  and  _690
REMARK  276  A    between atoms: _695  and  _696
REMARK  277  A    between atoms: _698  and  _700
REMARK  278  A    between atoms: _700  and  _701
REMARK  279  A    between atoms: _700  and  _703
REMARK  280  A    between atoms: _703  and  _704
REMARK  281  A    between atoms: _706  and  _708
REMARK  282  A    between atoms: _708  and  _709
REMARK  283  A    between atoms: _711  and  _713
REMARK  284  A    between atoms: _713  and  _714
REMARK                            x       y       z     vdW  Elec       q    Type
REMARK                         _______ _______ _______ _____ _____    ______ ____
ROOT
ATOM      1  O   HOH     1      37.797   1.420  43.389  0.00  0.00    +0.000 OA
ENDROOT
TORSDOF 0
REMARK  Name = ../refined-set-2016/3gnw/3gnw_pocket.pdb
REMARK  284 active torsions:
REMARK  status: ('A' for Active; 'I' for Inactive)
REMARK    1  A    between atoms: _1  and  _3
REMARK    2  A    between atoms: _3  and  _4
REMARK    3  A    between atoms: _3  and  _6
REMARK    4  A    between atoms: _6  and  _7
REMARK    5  A    between atoms: _7  and  _8
REMARK    6  A    between atoms: _8  and  _9
REMARK    7  A    between atoms: _9  and  _10
REMARK    8  A    between atoms: _14  and  _16
REMARK    9  A    between atoms: _16  and  _17
REMARK   10  A    between atoms: _16  and  _19
REMARK   11  A    between atoms: _19  and  _20
REMARK   12  A    between atoms: _20  and  _21
REMARK   13  A    between atoms: _24  and  _26
REMARK   14  A    between atoms: _26  and  _27
REMARK   15  A    between atoms: _26  and  _29
REMARK   16  A    between atoms: _29  and  _30
REMARK   17  A    between atoms: _36  and  _38
REMARK   18  A    between atoms: _38  and  _39
REMARK   19  A    between atoms: _38  and  _41
REMARK   20  A    between atoms: _41  and  _42
REMARK   21  A    between atoms: _42  and  _43
REMARK   22  A    between atoms: _43  and  _44
REMARK   23  A    between atoms: _53  and  _55
REMARK   24  A    between atoms: _55  and  _56
REMARK   25  A    between atoms: _55  and  _58
REMARK   26  A    between atoms: _58  and  _59
REMARK   27  A    between atoms: _62  and  _64
REMARK   28  A    between atoms: _64  and  _65
REMARK   29  A    between atoms: _67  and  _69
REMARK   30  A    between atoms: _69  and  _70
REMARK   31  A    between atoms: _69  and  _72
REMARK   32  A    between atoms: _72  and  _73
REMARK   33  A    between atoms: _79  and  _81
REMARK   34  A    between atoms: _81  and  _82
REMARK   35  A    between atoms: _81  and  _84
REMARK   36  A    between atoms: _84  and  _85
REMARK   37  A    between atoms: _90  and  _91
REMARK   38  A    between atoms: _93  and  _95
REMARK   39  A    between atoms: _95  and  _96
REMARK   40  A    between atoms: _95  and  _98
REMARK   41  A    between atoms: _98  and  _99
REMARK   42  A    between atoms: _102  and  _103
REMARK   43  A    between atoms: _108  and  _110
REMARK   44  A    between atoms: _110  and  _111
REMARK   45  A    between atoms: _110  and  _113
REMARK   46  A    between atoms: _113  and  _114
REMARK   47  A    between atoms: _114  and  _115
REMARK   48  A    between atoms: _115  and  _116
REMARK   49  A    between atoms: _116  and  _117
REMARK   50  A    between atoms: _121  and  _123
REMARK   51  A    between atoms: _123  and  _124
REMARK   52  A    between atoms: _123  and  _126
REMARK   53  A    between atoms: _126  and  _127
REMARK   54  A    between atoms: _127  and  _128
REMARK   55  A    between atoms: _133  and  _135
REMARK   56  A    between atoms: _135  and  _136
REMARK   57  A    between atoms: _135  and  _138
REMARK   58  A    between atoms: _138  and  _139
REMARK   59  A    between atoms: _139  and  _140
REMARK   60  A    between atoms: _140  and  _141
REMARK   61  A    between atoms: _150  and  _152
REMARK   62  A    between atoms: _152  and  _153
REMARK   63  A    between atoms: _152  and  _155
REMARK   64  A    between atoms: _158  and  _160
REMARK   65  A    between atoms: _160  and  _161
REMARK   66  A    between atoms: _160  and  _163
REMARK   67  A    between atoms: _163  and  _164
REMARK   68  A    between atoms: _167  and  _169
REMARK   69  A    between atoms: _169  and  _170
REMARK   70  A    between atoms: _169  and  _172
REMARK   71  A    between atoms: _172  and  _173
REMARK   72  A    between atoms: _179  and  _181
REMARK   73  A    between atoms: _181  and  _182
REMARK   74  A    between atoms: _181  and  _184
REMARK   75  A    between atoms: _184  and  _185
REMARK   76  A    between atoms: _188  and  _190
REMARK   77  A    between atoms: _190  and  _191
REMARK   78  A    between atoms: _190  and  _193
REMARK   79  A    between atoms: _193  and  _194
REMARK   80  A    between atoms: _196  and  _198
REMARK   81  A    between atoms: _198  and  _199
REMARK   82  A    between atoms: _198  and  _201
REMARK   83  A    between atoms: _201  and  _202
REMARK   84  A    between atoms: _205  and  _207
REMARK   85  A    between atoms: _207  and  _208
REMARK   86  A    between atoms: _207  and  _210
REMARK   87  A    between atoms: _210  and  _211
REMARK   88  A    between atoms: _213  and  _215
REMARK   89  A    between atoms: _215  and  _216
REMARK   90  A    between atoms: _215  and  _218
REMARK   91  A    between atoms: _218  and  _219
REMARK   92  A    between atoms: _224  and  _226
REMARK   93  A    between atoms: _226  and  _227
REMARK   94  A    between atoms: _226  and  _229
REMARK   95  A    between atoms: _229  and  _230
REMARK   96  A    between atoms: _233  and  _235
REMARK   97  A    between atoms: _235  and  _236
REMARK   98  A    between atoms: _235  and  _238
REMARK   99  A    between atoms: _238  and  _239
REMARK  100  A    between atoms: _244  and  _246
REMARK  101  A    between atoms: _246  and  _247
REMARK  102  A    between atoms: _249  and  _251
REMARK  103  A    between atoms: _251  and  _252
REMARK  104  A    between atoms: _251  and  _254
REMARK  105  A    between atoms: _254  and  _255
REMARK  106  A    between atoms: _258  and  _260
REMARK  107  A    between atoms: _260  and  _261
REMARK  108  A    between atoms: _260  and  _263
REMARK  109  A    between atoms: _263  and  _264
REMARK  110  A    between atoms: _267  and  _269
REMARK  111  A    between atoms: _269  and  _270
REMARK  112  A    between atoms: _269  and  _272
REMARK  113  A    between atoms: _272  and  _273
REMARK  114  A    between atoms: _276  and  _278
REMARK  115  A    between atoms: _278  and  _279
REMARK  116  A    between atoms: _278  and  _281
REMARK  117  A    between atoms: _281  and  _282
REMARK  118  A    between atoms: _284  and  _286
REMARK  119  A    between atoms: _286  and  _287
REMARK  120  A    between atoms: _286  and  _289
REMARK  121  A    between atoms: _291  and  _293
REMARK  122  A    between atoms: _293  and  _294
REMARK  123  A    between atoms: _293  and  _296
REMARK  124  A    between atoms: _296  and  _297
REMARK  125  A    between atoms: _299  and  _301
REMARK  126  A    between atoms: _301  and  _302
REMARK  127  A    between atoms: _301  and  _304
REMARK  128  A    between atoms: _304  and  _305
REMARK  129  A    between atoms: _307  and  _309
REMARK  130  A    between atoms: _309  and  _310
REMARK  131  A    between atoms: _309  and  _312
REMARK  132  A    between atoms: _312  and  _313
REMARK  133  A    between atoms: _318  and  _320
REMARK  134  A    between atoms: _320  and  _321
REMARK  135  A    between atoms: _320  and  _323
REMARK  136  A    between atoms: _323  and  _324
REMARK  137  A    between atoms: _329  and  _330
REMARK  138  A    between atoms: _332  and  _334
REMARK  139  A    between atoms: _334  and  _335
REMARK  140  A    between atoms: _334  and  _337
REMARK  141  A    between atoms: _337  and  _338
REMARK  142  A    between atoms: _341  and  _343
REMARK  143  A    between atoms: _343  and  _344
REMARK  144  A    between atoms: _343  and  _346
REMARK  145  A    between atoms: _346  and  _347
REMARK  146  A    between atoms: _350  and  _352
REMARK  147  A    between atoms: _352  and  _353
REMARK  148  A    between atoms: _352  and  _355
REMARK  149  A    between atoms: _355  and  _356
REMARK  150  A    between atoms: _356  and  _357
REMARK  151  A    between atoms: _357  and  _358
REMARK  152  A    between atoms: _367  and  _369
REMARK  153  A    between atoms: _369  and  _370
REMARK  154  A    between atoms: _369  and  _372
REMARK  155  A    between atoms: _372  and  _373
REMARK  156  A    between atoms: _377  and  _378
REMARK  157  A    between atoms: _383  and  _385
REMARK  158  A    between atoms: _385  and  _386
REMARK  159  A    between atoms: _385  and  _388
REMARK  160  A    between atoms: _388  and  _389
REMARK  161  A    between atoms: _389  and  _390
REMARK  162  A    between atoms: _390  and  _391
REMARK  163  A    between atoms: _400  and  _402
REMARK  164  A    between atoms: _402  and  _403
REMARK  165  A    between atoms: _402  and  _405
REMARK  166  A    between atoms: _405  and  _406
REMARK  167  A    between atoms: _406  and  _407
REMARK  168  A    between atoms: _410  and  _412
REMARK  169  A    between atoms: _412  and  _413
REMARK  170  A    between atoms: _412  and  _415
REMARK  171  A    between atoms: _415  and  _416
REMARK  172  A    between atoms: _419  and  _421
REMARK  173  A    between atoms: _421  and  _422
REMARK  174  A    between atoms: _421  and  _424
REMARK  175  A    between atoms: _424  and  _425
REMARK  176  A    between atoms: _430  and  _432
REMARK  177  A    between atoms: _432  and  _433
REMARK  178  A    between atoms: _432  and  _435
REMARK  179  A    between atoms: _435  and  _436
REMARK  180  A    between atoms: _438  and  _440
REMARK  181  A    between atoms: _440  and  _441
REMARK  182  A    between atoms: _440  and  _443
REMARK  183  A    between atoms: _443  and  _444
REMARK  184  A    between atoms: _454  and  _456
REMARK  185  A    between atoms: _456  and  _457
REMARK  186  A    between atoms: _456  and  _459
REMARK  187  A    between atoms: _459  and  _460
REMARK  188  A    between atoms: _463  and  _465
REMARK  189  A    between atoms: _465  and  _466
REMARK  190  A    between atoms: _468  and  _470
REMARK  191  A    between atoms: _470  and  _471
REMARK  192  A    between atoms: _470  and  _473
REMARK  193  A    between atoms: _473  and  _474
REMARK  194  A    between atoms: _479  and  _481
REMARK  195  A    between atoms: _481  and  _482
REMARK  196  A    between atoms: _481  and  _484
REMARK  197  A    between atoms: _484  and  _485
REMARK  198  A    between atoms: _488  and  _490
REMARK  199  A    between atoms: _490  and  _491
REMARK  200  A    between atoms: _490  and  _493
REMARK  201  A    between atoms: _493  and  _494
REMARK  202  A    between atoms: _497  and  _499
REMARK  203  A    between atoms: _499  and  _500
REMARK  204  A    between atoms: _499  and  _502
REMARK  205  A    between atoms: _502  and  _503
REMARK  206  A    between atoms: _503  and  _504
REMARK  207  A    between atoms: _506  and  _508
REMARK  208  A    between atoms: _508  and  _509
REMARK  209  A    between atoms: _508  and  _511
REMARK  210  A    between atoms: _511  and  _512
REMARK  211  A    between atoms: _517  and  _518
REMARK  212  A    between atoms: _520  and  _522
REMARK  213  A    between atoms: _522  and  _523
REMARK  214  A    between atoms: _527  and  _528
REMARK  215  A    between atoms: _533  and  _535
REMARK  216  A    between atoms: _535  and  _536
REMARK  217  A    between atoms: _535  and  _538
REMARK  218  A    between atoms: _538  and  _539
REMARK  219  A    between atoms: _542  and  _544
REMARK  220  A    between atoms: _544  and  _545
REMARK  221  A    between atoms: _544  and  _547
REMARK  222  A    between atoms: _547  and  _548
REMARK  223  A    between atoms: _558  and  _560
REMARK  224  A    between atoms: _560  and  _561
REMARK  225  A    between atoms: _560  and  _563
REMARK  226  A    between atoms: _563  and  _564
REMARK  227  A    between atoms: _567  and  _569
REMARK  228  A    between atoms: _569  and  _570
REMARK  229  A    between atoms: _569  and  _572
REMARK  230  A    between atoms: _574  and  _576
REMARK  231  A    between atoms: _576  and  _577
REMARK  232  A    between atoms: _576  and  _579
REMARK  233  A    between atoms: _579  and  _580
REMARK  234  A    between atoms: _580  and  _581
REMARK  235  A    between atoms: _586  and  _588
REMARK  236  A    between atoms: _588  and  _589
REMARK  237  A    between atoms: _588  and  _591
REMARK  238  A    between atoms: _591  and  _592
REMARK  239  A    between atoms: _595  and  _597
REMARK  240  A    between atoms: _597  and  _598
REMARK  241  A    between atoms: _597  and  _600
REMARK  242  A    between atoms: _600  and  _601
REMARK  243  A    between atoms: _606  and  _607
REMARK  244  A    between atoms: _609  and  _611
REMARK  245  A    between atoms: _611  and  _612
REMARK  246  A    between atoms: _614  and  _616
REMARK  247  A    between atoms: _616  and  _617
REMARK  248  A    between atoms: _620  and  _622
REMARK  249  A    between atoms: _622  and  _623
REMARK  250  A    between atoms: _622  and  _625
REMARK  251  A    between atoms: _627  and  _629
REMARK  252  A    between atoms: _629  and  _630
REMARK  253  A    between atoms: _629  and  _632
REMARK  254  A    between atoms: _632  and  _633
REMARK  255  A    between atoms: _638  and  _639
REMARK  256  A    between atoms: _641  and  _643
REMARK  257  A    between atoms: _643  and  _644
REMARK  258  A    between atoms: _643  and  _646
REMARK  259  A    between atoms: _646  and  _647
REMARK  260  A    between atoms: _650  and  _652
REMARK  261  A    between atoms: _652  and  _653
REMARK  262  A    between atoms: _652  and  _655
REMARK  263  A    between atoms: _655  and  _656
REMARK  264  A    between atoms: _661  and  _663
REMARK  265  A    between atoms: _663  and  _664
REMARK  266  A    between atoms: _663  and  _666
REMARK  267  A    between atoms: _666  and  _667
REMARK  268  A    between atoms: _673  and  _675
REMARK  269  A    between atoms: _675  and  _676
REMARK  270  A    between atoms: _679  and  _681
REMARK  271  A    between atoms: _681  and  _682
REMARK  272  A    between atoms: _684  and  _686
REMARK  273  A    between atoms: _686  and  _687
REMARK  274  A    between atoms: _686  and  _689
REMARK  275  A    between atoms: _689  and  _690
REMARK  276  A    between atoms: _695  and  _696
REMARK  277  A    between atoms: _698  and  _700
REMARK  278  A    between atoms: _700  and  _701
REMARK  279  A    between atoms: _700  and  _703
REMARK  280  A    between atoms: _703  and  _704
REMARK  281  A    between atoms: _706  and  _708
REMARK  282  A    between atoms: _708  and  _709
REMARK  283  A    between atoms: _711  and  _713
REMARK  284  A    between atoms: _713  and  _714
REMARK                            x       y       z     vdW  Elec       q    Type
REMARK                         _______ _______ _______ _____ _____    ______ ____
ROOT
ATOM      1  O   HOH     1      19.355  10.445  39.468  0.00  0.00    +0.000 OA
ENDROOT
TORSDOF 0
REMARK  Name = ../refined-set-2016/3gnw/3gnw_pocket.pdb
REMARK  284 active torsions:
REMARK  status: ('A' for Active; 'I' for Inactive)
REMARK    1  A    between atoms: _1  and  _3
REMARK    2  A    between atoms: _3  and  _4
REMARK    3  A    between atoms: _3  and  _6
REMARK    4  A    between atoms: _6  and  _7
REMARK    5  A    between atoms: _7  and  _8
REMARK    6  A    between atoms: _8  and  _9
REMARK    7  A    between atoms: _9  and  _10
REMARK    8  A    between atoms: _14  and  _16
REMARK    9  A    between atoms: _16  and  _17
REMARK   10  A    between atoms: _16  and  _19
REMARK   11  A    between atoms: _19  and  _20
REMARK   12  A    between atoms: _20  and  _21
REMARK   13  A    between atoms: _24  and  _26
REMARK   14  A    between atoms: _26  and  _27
REMARK   15  A    between atoms: _26  and  _29
REMARK   16  A    between atoms: _29  and  _30
REMARK   17  A    between atoms: _36  and  _38
REMARK   18  A    between atoms: _38  and  _39
REMARK   19  A    between atoms: _38  and  _41
REMARK   20  A    between atoms: _41  and  _42
REMARK   21  A    between atoms: _42  and  _43
REMARK   22  A    between atoms: _43  and  _44
REMARK   23  A    between atoms: _53  and  _55
REMARK   24  A    between atoms: _55  and  _56
REMARK   25  A    between atoms: _55  and  _58
REMARK   26  A    between atoms: _58  and  _59
REMARK   27  A    between atoms: _62  and  _64
REMARK   28  A    between atoms: _64  and  _65
REMARK   29  A    between atoms: _67  and  _69
REMARK   30  A    between atoms: _69  and  _70
REMARK   31  A    between atoms: _69  and  _72
REMARK   32  A    between atoms: _72  and  _73
REMARK   33  A    between atoms: _79  and  _81
REMARK   34  A    between atoms: _81  and  _82
REMARK   35  A    between atoms: _81  and  _84
REMARK   36  A    between atoms: _84  and  _85
REMARK   37  A    between atoms: _90  and  _91
REMARK   38  A    between atoms: _93  and  _95
REMARK   39  A    between atoms: _95  and  _96
REMARK   40  A    between atoms: _95  and  _98
REMARK   41  A    between atoms: _98  and  _99
REMARK   42  A    between atoms: _102  and  _103
REMARK   43  A    between atoms: _108  and  _110
REMARK   44  A    between atoms: _110  and  _111
REMARK   45  A    between atoms: _110  and  _113
REMARK   46  A    between atoms: _113  and  _114
REMARK   47  A    between atoms: _114  and  _115
REMARK   48  A    between atoms: _115  and  _116
REMARK   49  A    between atoms: _116  and  _117
REMARK   50  A    between atoms: _121  and  _123
REMARK   51  A    between atoms: _123  and  _124
REMARK   52  A    between atoms: _123  and  _126
REMARK   53  A    between atoms: _126  and  _127
REMARK   54  A    between atoms: _127  and  _128
REMARK   55  A    between atoms: _133  and  _135
REMARK   56  A    between atoms: _135  and  _136
REMARK   57  A    between atoms: _135  and  _138
REMARK   58  A    between atoms: _138  and  _139
REMARK   59  A    between atoms: _139  and  _140
REMARK   60  A    between atoms: _140  and  _141
REMARK   61  A    between atoms: _150  and  _152
REMARK   62  A    between atoms: _152  and  _153
REMARK   63  A    between atoms: _152  and  _155
REMARK   64  A    between atoms: _158  and  _160
REMARK   65  A    between atoms: _160  and  _161
REMARK   66  A    between atoms: _160  and  _163
REMARK   67  A    between atoms: _163  and  _164
REMARK   68  A    between atoms: _167  and  _169
REMARK   69  A    between atoms: _169  and  _170
REMARK   70  A    between atoms: _169  and  _172
REMARK   71  A    between atoms: _172  and  _173
REMARK   72  A    between atoms: _179  and  _181
REMARK   73  A    between atoms: _181  and  _182
REMARK   74  A    between atoms: _181  and  _184
REMARK   75  A    between atoms: _184  and  _185
REMARK   76  A    between atoms: _188  and  _190
REMARK   77  A    between atoms: _190  and  _191
REMARK   78  A    between atoms: _190  and  _193
REMARK   79  A    between atoms: _193  and  _194
REMARK   80  A    between atoms: _196  and  _198
REMARK   81  A    between atoms: _198  and  _199
REMARK   82  A    between atoms: _198  and  _201
REMARK   83  A    between atoms: _201  and  _202
REMARK   84  A    between atoms: _205  and  _207
REMARK   85  A    between atoms: _207  and  _208
REMARK   86  A    between atoms: _207  and  _210
REMARK   87  A    between atoms: _210  and  _211
REMARK   88  A    between atoms: _213  and  _215
REMARK   89  A    between atoms: _215  and  _216
REMARK   90  A    between atoms: _215  and  _218
REMARK   91  A    between atoms: _218  and  _219
REMARK   92  A    between atoms: _224  and  _226
REMARK   93  A    between atoms: _226  and  _227
REMARK   94  A    between atoms: _226  and  _229
REMARK   95  A    between atoms: _229  and  _230
REMARK   96  A    between atoms: _233  and  _235
REMARK   97  A    between atoms: _235  and  _236
REMARK   98  A    between atoms: _235  and  _238
REMARK   99  A    between atoms: _238  and  _239
REMARK  100  A    between atoms: _244  and  _246
REMARK  101  A    between atoms: _246  and  _247
REMARK  102  A    between atoms: _249  and  _251
REMARK  103  A    between atoms: _251  and  _252
REMARK  104  A    between atoms: _251  and  _254
REMARK  105  A    between atoms: _254  and  _255
REMARK  106  A    between atoms: _258  and  _260
REMARK  107  A    between atoms: _260  and  _261
REMARK  108  A    between atoms: _260  and  _263
REMARK  109  A    between atoms: _263  and  _264
REMARK  110  A    between atoms: _267  and  _269
REMARK  111  A    between atoms: _269  and  _270
REMARK  112  A    between atoms: _269  and  _272
REMARK  113  A    between atoms: _272  and  _273
REMARK  114  A    between atoms: _276  and  _278
REMARK  115  A    between atoms: _278  and  _279
REMARK  116  A    between atoms: _278  and  _281
REMARK  117  A    between atoms: _281  and  _282
REMARK  118  A    between atoms: _284  and  _286
REMARK  119  A    between atoms: _286  and  _287
REMARK  120  A    between atoms: _286  and  _289
REMARK  121  A    between atoms: _291  and  _293
REMARK  122  A    between atoms: _293  and  _294
REMARK  123  A    between atoms: _293  and  _296
REMARK  124  A    between atoms: _296  and  _297
REMARK  125  A    between atoms: _299  and  _301
REMARK  126  A    between atoms: _301  and  _302
REMARK  127  A    between atoms: _301  and  _304
REMARK  128  A    between atoms: _304  and  _305
REMARK  129  A    between atoms: _307  and  _309
REMARK  130  A    between atoms: _309  and  _310
REMARK  131  A    between atoms: _309  and  _312
REMARK  132  A    between atoms: _312  and  _313
REMARK  133  A    between atoms: _318  and  _320
REMARK  134  A    between atoms: _320  and  _321
REMARK  135  A    between atoms: _320  and  _323
REMARK  136  A    between atoms: _323  and  _324
REMARK  137  A    between atoms: _329  and  _330
REMARK  138  A    between atoms: _332  and  _334
REMARK  139  A    between atoms: _334  and  _335
REMARK  140  A    between atoms: _334  and  _337
REMARK  141  A    between atoms: _337  and  _338
REMARK  142  A    between atoms: _341  and  _343
REMARK  143  A    between atoms: _343  and  _344
REMARK  144  A    between atoms: _343  and  _346
REMARK  145  A    between atoms: _346  and  _347
REMARK  146  A    between atoms: _350  and  _352
REMARK  147  A    between atoms: _352  and  _353
REMARK  148  A    between atoms: _352  and  _355
REMARK  149  A    between atoms: _355  and  _356
REMARK  150  A    between atoms: _356  and  _357
REMARK  151  A    between atoms: _357  and  _358
REMARK  152  A    between atoms: _367  and  _369
REMARK  153  A    between atoms: _369  and  _370
REMARK  154  A    between atoms: _369  and  _372
REMARK  155  A    between atoms: _372  and  _373
REMARK  156  A    between atoms: _377  and  _378
REMARK  157  A    between atoms: _383  and  _385
REMARK  158  A    between atoms: _385  and  _386
REMARK  159  A    between atoms: _385  and  _388
REMARK  160  A    between atoms: _388  and  _389
REMARK  161  A    between atoms: _389  and  _390
REMARK  162  A    between atoms: _390  and  _391
REMARK  163  A    between atoms: _400  and  _402
REMARK  164  A    between atoms: _402  and  _403
REMARK  165  A    between atoms: _402  and  _405
REMARK  166  A    between atoms: _405  and  _406
REMARK  167  A    between atoms: _406  and  _407
REMARK  168  A    between atoms: _410  and  _412
REMARK  169  A    between atoms: _412  and  _413
REMARK  170  A    between atoms: _412  and  _415
REMARK  171  A    between atoms: _415  and  _416
REMARK  172  A    between atoms: _419  and  _421
REMARK  173  A    between atoms: _421  and  _422
REMARK  174  A    between atoms: _421  and  _424
REMARK  175  A    between atoms: _424  and  _425
REMARK  176  A    between atoms: _430  and  _432
REMARK  177  A    between atoms: _432  and  _433
REMARK  178  A    between atoms: _432  and  _435
REMARK  179  A    between atoms: _435  and  _436
REMARK  180  A    between atoms: _438  and  _440
REMARK  181  A    between atoms: _440  and  _441
REMARK  182  A    between atoms: _440  and  _443
REMARK  183  A    between atoms: _443  and  _444
REMARK  184  A    between atoms: _454  and  _456
REMARK  185  A    between atoms: _456  and  _457
REMARK  186  A    between atoms: _456  and  _459
REMARK  187  A    between atoms: _459  and  _460
REMARK  188  A    between atoms: _463  and  _465
REMARK  189  A    between atoms: _465  and  _466
REMARK  190  A    between atoms: _468  and  _470
REMARK  191  A    between atoms: _470  and  _471
REMARK  192  A    between atoms: _470  and  _473
REMARK  193  A    between atoms: _473  and  _474
REMARK  194  A    between atoms: _479  and  _481
REMARK  195  A    between atoms: _481  and  _482
REMARK  196  A    between atoms: _481  and  _484
REMARK  197  A    between atoms: _484  and  _485
REMARK  198  A    between atoms: _488  and  _490
REMARK  199  A    between atoms: _490  and  _491
REMARK  200  A    between atoms: _490  and  _493
REMARK  201  A    between atoms: _493  and  _494
REMARK  202  A    between atoms: _497  and  _499
REMARK  203  A    between atoms: _499  and  _500
REMARK  204  A    between atoms: _499  and  _502
REMARK  205  A    between atoms: _502  and  _503
REMARK  206  A    between atoms: _503  and  _504
REMARK  207  A    between atoms: _506  and  _508
REMARK  208  A    between atoms: _508  and  _509
REMARK  209  A    between atoms: _508  and  _511
REMARK  210  A    between atoms: _511  and  _512
REMARK  211  A    between atoms: _517  and  _518
REMARK  212  A    between atoms: _520  and  _522
REMARK  213  A    between atoms: _522  and  _523
REMARK  214  A    between atoms: _527  and  _528
REMARK  215  A    between atoms: _533  and  _535
REMARK  216  A    between atoms: _535  and  _536
REMARK  217  A    between atoms: _535  and  _538
REMARK  218  A    between atoms: _538  and  _539
REMARK  219  A    between atoms: _542  and  _544
REMARK  220  A    between atoms: _544  and  _545
REMARK  221  A    between atoms: _544  and  _547
REMARK  222  A    between atoms: _547  and  _548
REMARK  223  A    between atoms: _558  and  _560
REMARK  224  A    between atoms: _560  and  _561
REMARK  225  A    between atoms: _560  and  _563
REMARK  226  A    between atoms: _563  and  _564
REMARK  227  A    between atoms: _567  and  _569
REMARK  228  A    between atoms: _569  and  _570
REMARK  229  A    between atoms: _569  and  _572
REMARK  230  A    between atoms: _574  and  _576
REMARK  231  A    between atoms: _576  and  _577
REMARK  232  A    between atoms: _576  and  _579
REMARK  233  A    between atoms: _579  and  _580
REMARK  234  A    between atoms: _580  and  _581
REMARK  235  A    between atoms: _586  and  _588
REMARK  236  A    between atoms: _588  and  _589
REMARK  237  A    between atoms: _588  and  _591
REMARK  238  A    between atoms: _591  and  _592
REMARK  239  A    between atoms: _595  and  _597
REMARK  240  A    between atoms: _597  and  _598
REMARK  241  A    between atoms: _597  and  _600
REMARK  242  A    between atoms: _600  and  _601
REMARK  243  A    between atoms: _606  and  _607
REMARK  244  A    between atoms: _609  and  _611
REMARK  245  A    between atoms: _611  and  _612
REMARK  246  A    between atoms: _614  and  _616
REMARK  247  A    between atoms: _616  and  _617
REMARK  248  A    between atoms: _620  and  _622
REMARK  249  A    between atoms: _622  and  _623
REMARK  250  A    between atoms: _622  and  _625
REMARK  251  A    between atoms: _627  and  _629
REMARK  252  A    between atoms: _629  and  _630
REMARK  253  A    between atoms: _629  and  _632
REMARK  254  A    between atoms: _632  and  _633
REMARK  255  A    between atoms: _638  and  _639
REMARK  256  A    between atoms: _641  and  _643
REMARK  257  A    between atoms: _643  and  _644
REMARK  258  A    between atoms: _643  and  _646
REMARK  259  A    between atoms: _646  and  _647
REMARK  260  A    between atoms: _650  and  _652
REMARK  261  A    between atoms: _652  and  _653
REMARK  262  A    between atoms: _652  and  _655
REMARK  263  A    between atoms: _655  and  _656
REMARK  264  A    between atoms: _661  and  _663
REMARK  265  A    between atoms: _663  and  _664
REMARK  266  A    between atoms: _663  and  _666
REMARK  267  A    between atoms: _666  and  _667
REMARK  268  A    between atoms: _673  and  _675
REMARK  269  A    between atoms: _675  and  _676
REMARK  270  A    between atoms: _679  and  _681
REMARK  271  A    between atoms: _681  and  _682
REMARK  272  A    between atoms: _684  and  _686
REMARK  273  A    between atoms: _686  and  _687
REMARK  274  A    between atoms: _686  and  _689
REMARK  275  A    between atoms: _689  and  _690
REMARK  276  A    between atoms: _695  and  _696
REMARK  277  A    between atoms: _698  and  _700
REMARK  278  A    between atoms: _700  and  _701
REMARK  279  A    between atoms: _700  and  _703
REMARK  280  A    between atoms: _703  and  _704
REMARK  281  A    between atoms: _706  and  _708
REMARK  282  A    between atoms: _708  and  _709
REMARK  283  A    between atoms: _711  and  _713
REMARK  284  A    between atoms: _713  and  _714
REMARK                            x       y       z     vdW  Elec       q    Type
REMARK                         _______ _______ _______ _____ _____    ______ ____
ROOT
ATOM      1  O   HOH     1      33.806   8.242  40.515  0.00  0.00    +0.000 OA
ENDROOT
TORSDOF 0
REMARK  Name = ../refined-set-2016/3gnw/3gnw_pocket.pdb
REMARK  284 active torsions:
REMARK  status: ('A' for Active; 'I' for Inactive)
REMARK    1  A    between atoms: _1  and  _3
REMARK    2  A    between atoms: _3  and  _4
REMARK    3  A    between atoms: _3  and  _6
REMARK    4  A    between atoms: _6  and  _7
REMARK    5  A    between atoms: _7  and  _8
REMARK    6  A    between atoms: _8  and  _9
REMARK    7  A    between atoms: _9  and  _10
REMARK    8  A    between atoms: _14  and  _16
REMARK    9  A    between atoms: _16  and  _17
REMARK   10  A    between atoms: _16  and  _19
REMARK   11  A    between atoms: _19  and  _20
REMARK   12  A    between atoms: _20  and  _21
REMARK   13  A    between atoms: _24  and  _26
REMARK   14  A    between atoms: _26  and  _27
REMARK   15  A    between atoms: _26  and  _29
REMARK   16  A    between atoms: _29  and  _30
REMARK   17  A    between atoms: _36  and  _38
REMARK   18  A    between atoms: _38  and  _39
REMARK   19  A    between atoms: _38  and  _41
REMARK   20  A    between atoms: _41  and  _42
REMARK   21  A    between atoms: _42  and  _43
REMARK   22  A    between atoms: _43  and  _44
REMARK   23  A    between atoms: _53  and  _55
REMARK   24  A    between atoms: _55  and  _56
REMARK   25  A    between atoms: _55  and  _58
REMARK   26  A    between atoms: _58  and  _59
REMARK   27  A    between atoms: _62  and  _64
REMARK   28  A    between atoms: _64  and  _65
REMARK   29  A    between atoms: _67  and  _69
REMARK   30  A    between atoms: _69  and  _70
REMARK   31  A    between atoms: _69  and  _72
REMARK   32  A    between atoms: _72  and  _73
REMARK   33  A    between atoms: _79  and  _81
REMARK   34  A    between atoms: _81  and  _82
REMARK   35  A    between atoms: _81  and  _84
REMARK   36  A    between atoms: _84  and  _85
REMARK   37  A    between atoms: _90  and  _91
REMARK   38  A    between atoms: _93  and  _95
REMARK   39  A    between atoms: _95  and  _96
REMARK   40  A    between atoms: _95  and  _98
REMARK   41  A    between atoms: _98  and  _99
REMARK   42  A    between atoms: _102  and  _103
REMARK   43  A    between atoms: _108  and  _110
REMARK   44  A    between atoms: _110  and  _111
REMARK   45  A    between atoms: _110  and  _113
REMARK   46  A    between atoms: _113  and  _114
REMARK   47  A    between atoms: _114  and  _115
REMARK   48  A    between atoms: _115  and  _116
REMARK   49  A    between atoms: _116  and  _117
REMARK   50  A    between atoms: _121  and  _123
REMARK   51  A    between atoms: _123  and  _124
REMARK   52  A    between atoms: _123  and  _126
REMARK   53  A    between atoms: _126  and  _127
REMARK   54  A    between atoms: _127  and  _128
REMARK   55  A    between atoms: _133  and  _135
REMARK   56  A    between atoms: _135  and  _136
REMARK   57  A    between atoms: _135  and  _138
REMARK   58  A    between atoms: _138  and  _139
REMARK   59  A    between atoms: _139  and  _140
REMARK   60  A    between atoms: _140  and  _141
REMARK   61  A    between atoms: _150  and  _152
REMARK   62  A    between atoms: _152  and  _153
REMARK   63  A    between atoms: _152  and  _155
REMARK   64  A    between atoms: _158  and  _160
REMARK   65  A    between atoms: _160  and  _161
REMARK   66  A    between atoms: _160  and  _163
REMARK   67  A    between atoms: _163  and  _164
REMARK   68  A    between atoms: _167  and  _169
REMARK   69  A    between atoms: _169  and  _170
REMARK   70  A    between atoms: _169  and  _172
REMARK   71  A    between atoms: _172  and  _173
REMARK   72  A    between atoms: _179  and  _181
REMARK   73  A    between atoms: _181  and  _182
REMARK   74  A    between atoms: _181  and  _184
REMARK   75  A    between atoms: _184  and  _185
REMARK   76  A    between atoms: _188  and  _190
REMARK   77  A    between atoms: _190  and  _191
REMARK   78  A    between atoms: _190  and  _193
REMARK   79  A    between atoms: _193  and  _194
REMARK   80  A    between atoms: _196  and  _198
REMARK   81  A    between atoms: _198  and  _199
REMARK   82  A    between atoms: _198  and  _201
REMARK   83  A    between atoms: _201  and  _202
REMARK   84  A    between atoms: _205  and  _207
REMARK   85  A    between atoms: _207  and  _208
REMARK   86  A    between atoms: _207  and  _210
REMARK   87  A    between atoms: _210  and  _211
REMARK   88  A    between atoms: _213  and  _215
REMARK   89  A    between atoms: _215  and  _216
REMARK   90  A    between atoms: _215  and  _218
REMARK   91  A    between atoms: _218  and  _219
REMARK   92  A    between atoms: _224  and  _226
REMARK   93  A    between atoms: _226  and  _227
REMARK   94  A    between atoms: _226  and  _229
REMARK   95  A    between atoms: _229  and  _230
REMARK   96  A    between atoms: _233  and  _235
REMARK   97  A    between atoms: _235  and  _236
REMARK   98  A    between atoms: _235  and  _238
REMARK   99  A    between atoms: _238  and  _239
REMARK  100  A    between atoms: _244  and  _246
REMARK  101  A    between atoms: _246  and  _247
REMARK  102  A    between atoms: _249  and  _251
REMARK  103  A    between atoms: _251  and  _252
REMARK  104  A    between atoms: _251  and  _254
REMARK  105  A    between atoms: _254  and  _255
REMARK  106  A    between atoms: _258  and  _260
REMARK  107  A    between atoms: _260  and  _261
REMARK  108  A    between atoms: _260  and  _263
REMARK  109  A    between atoms: _263  and  _264
REMARK  110  A    between atoms: _267  and  _269
REMARK  111  A    between atoms: _269  and  _270
REMARK  112  A    between atoms: _269  and  _272
REMARK  113  A    between atoms: _272  and  _273
REMARK  114  A    between atoms: _276  and  _278
REMARK  115  A    between atoms: _278  and  _279
REMARK  116  A    between atoms: _278  and  _281
REMARK  117  A    between atoms: _281  and  _282
REMARK  118  A    between atoms: _284  and  _286
REMARK  119  A    between atoms: _286  and  _287
REMARK  120  A    between atoms: _286  and  _289
REMARK  121  A    between atoms: _291  and  _293
REMARK  122  A    between atoms: _293  and  _294
REMARK  123  A    between atoms: _293  and  _296
REMARK  124  A    between atoms: _296  and  _297
REMARK  125  A    between atoms: _299  and  _301
REMARK  126  A    between atoms: _301  and  _302
REMARK  127  A    between atoms: _301  and  _304
REMARK  128  A    between atoms: _304  and  _305
REMARK  129  A    between atoms: _307  and  _309
REMARK  130  A    between atoms: _309  and  _310
REMARK  131  A    between atoms: _309  and  _312
REMARK  132  A    between atoms: _312  and  _313
REMARK  133  A    between atoms: _318  and  _320
REMARK  134  A    between atoms: _320  and  _321
REMARK  135  A    between atoms: _320  and  _323
REMARK  136  A    between atoms: _323  and  _324
REMARK  137  A    between atoms: _329  and  _330
REMARK  138  A    between atoms: _332  and  _334
REMARK  139  A    between atoms: _334  and  _335
REMARK  140  A    between atoms: _334  and  _337
REMARK  141  A    between atoms: _337  and  _338
REMARK  142  A    between atoms: _341  and  _343
REMARK  143  A    between atoms: _343  and  _344
REMARK  144  A    between atoms: _343  and  _346
REMARK  145  A    between atoms: _346  and  _347
REMARK  146  A    between atoms: _350  and  _352
REMARK  147  A    between atoms: _352  and  _353
REMARK  148  A    between atoms: _352  and  _355
REMARK  149  A    between atoms: _355  and  _356
REMARK  150  A    between atoms: _356  and  _357
REMARK  151  A    between atoms: _357  and  _358
REMARK  152  A    between atoms: _367  and  _369
REMARK  153  A    between atoms: _369  and  _370
REMARK  154  A    between atoms: _369  and  _372
REMARK  155  A    between atoms: _372  and  _373
REMARK  156  A    between atoms: _377  and  _378
REMARK  157  A    between atoms: _383  and  _385
REMARK  158  A    between atoms: _385  and  _386
REMARK  159  A    between atoms: _385  and  _388
REMARK  160  A    between atoms: _388  and  _389
REMARK  161  A    between atoms: _389  and  _390
REMARK  162  A    between atoms: _390  and  _391
REMARK  163  A    between atoms: _400  and  _402
REMARK  164  A    between atoms: _402  and  _403
REMARK  165  A    between atoms: _402  and  _405
REMARK  166  A    between atoms: _405  and  _406
REMARK  167  A    between atoms: _406  and  _407
REMARK  168  A    between atoms: _410  and  _412
REMARK  169  A    between atoms: _412  and  _413
REMARK  170  A    between atoms: _412  and  _415
REMARK  171  A    between atoms: _415  and  _416
REMARK  172  A    between atoms: _419  and  _421
REMARK  173  A    between atoms: _421  and  _422
REMARK  174  A    between atoms: _421  and  _424
REMARK  175  A    between atoms: _424  and  _425
REMARK  176  A    between atoms: _430  and  _432
REMARK  177  A    between atoms: _432  and  _433
REMARK  178  A    between atoms: _432  and  _435
REMARK  179  A    between atoms: _435  and  _436
REMARK  180  A    between atoms: _438  and  _440
REMARK  181  A    between atoms: _440  and  _441
REMARK  182  A    between atoms: _440  and  _443
REMARK  183  A    between atoms: _443  and  _444
REMARK  184  A    between atoms: _454  and  _456
REMARK  185  A    between atoms: _456  and  _457
REMARK  186  A    between atoms: _456  and  _459
REMARK  187  A    between atoms: _459  and  _460
REMARK  188  A    between atoms: _463  and  _465
REMARK  189  A    between atoms: _465  and  _466
REMARK  190  A    between atoms: _468  and  _470
REMARK  191  A    between atoms: _470  and  _471
REMARK  192  A    between atoms: _470  and  _473
REMARK  193  A    between atoms: _473  and  _474
REMARK  194  A    between atoms: _479  and  _481
REMARK  195  A    between atoms: _481  and  _482
REMARK  196  A    between atoms: _481  and  _484
REMARK  197  A    between atoms: _484  and  _485
REMARK  198  A    between atoms: _488  and  _490
REMARK  199  A    between atoms: _490  and  _491
REMARK  200  A    between atoms: _490  and  _493
REMARK  201  A    between atoms: _493  and  _494
REMARK  202  A    between atoms: _497  and  _499
REMARK  203  A    between atoms: _499  and  _500
REMARK  204  A    between atoms: _499  and  _502
REMARK  205  A    between atoms: _502  and  _503
REMARK  206  A    between atoms: _503  and  _504
REMARK  207  A    between atoms: _506  and  _508
REMARK  208  A    between atoms: _508  and  _509
REMARK  209  A    between atoms: _508  and  _511
REMARK  210  A    between atoms: _511  and  _512
REMARK  211  A    between atoms: _517  and  _518
REMARK  212  A    between atoms: _520  and  _522
REMARK  213  A    between atoms: _522  and  _523
REMARK  214  A    between atoms: _527  and  _528
REMARK  215  A    between atoms: _533  and  _535
REMARK  216  A    between atoms: _535  and  _536
REMARK  217  A    between atoms: _535  and  _538
REMARK  218  A    between atoms: _538  and  _539
REMARK  219  A    between atoms: _542  and  _544
REMARK  220  A    between atoms: _544  and  _545
REMARK  221  A    between atoms: _544  and  _547
REMARK  222  A    between atoms: _547  and  _548
REMARK  223  A    between atoms: _558  and  _560
REMARK  224  A    between atoms: _560  and  _561
REMARK  225  A    between atoms: _560  and  _563
REMARK  226  A    between atoms: _563  and  _564
REMARK  227  A    between atoms: _567  and  _569
REMARK  228  A    between atoms: _569  and  _570
REMARK  229  A    between atoms: _569  and  _572
REMARK  230  A    between atoms: _574  and  _576
REMARK  231  A    between atoms: _576  and  _577
REMARK  232  A    between atoms: _576  and  _579
REMARK  233  A    between atoms: _579  and  _580
REMARK  234  A    between atoms: _580  and  _581
REMARK  235  A    between atoms: _586  and  _588
REMARK  236  A    between atoms: _588  and  _589
REMARK  237  A    between atoms: _588  and  _591
REMARK  238  A    between atoms: _591  and  _592
REMARK  239  A    between atoms: _595  and  _597
REMARK  240  A    between atoms: _597  and  _598
REMARK  241  A    between atoms: _597  and  _600
REMARK  242  A    between atoms: _600  and  _601
REMARK  243  A    between atoms: _606  and  _607
REMARK  244  A    between atoms: _609  and  _611
REMARK  245  A    between atoms: _611  and  _612
REMARK  246  A    between atoms: _614  and  _616
REMARK  247  A    between atoms: _616  and  _617
REMARK  248  A    between atoms: _620  and  _622
REMARK  249  A    between atoms: _622  and  _623
REMARK  250  A    between atoms: _622  and  _625
REMARK  251  A    between atoms: _627  and  _629
REMARK  252  A    between atoms: _629  and  _630
REMARK  253  A    between atoms: _629  and  _632
REMARK  254  A    between atoms: _632  and  _633
REMARK  255  A    between atoms: _638  and  _639
REMARK  256  A    between atoms: _641  and  _643
REMARK  257  A    between atoms: _643  and  _644
REMARK  258  A    between atoms: _643  and  _646
REMARK  259  A    between atoms: _646  and  _647
REMARK  260  A    between atoms: _650  and  _652
REMARK  261  A    between atoms: _652  and  _653
REMARK  262  A    between atoms: _652  and  _655
REMARK  263  A    between atoms: _655  and  _656
REMARK  264  A    between atoms: _661  and  _663
REMARK  265  A    between atoms: _663  and  _664
REMARK  266  A    between atoms: _663  and  _666
REMARK  267  A    between atoms: _666  and  _667
REMARK  268  A    between atoms: _673  and  _675
REMARK  269  A    between atoms: _675  and  _676
REMARK  270  A    between atoms: _679  and  _681
REMARK  271  A    between atoms: _681  and  _682
REMARK  272  A    between atoms: _684  and  _686
REMARK  273  A    between atoms: _686  and  _687
REMARK  274  A    between atoms: _686  and  _689
REMARK  275  A    between atoms: _689  and  _690
REMARK  276  A    between atoms: _695  and  _696
REMARK  277  A    between atoms: _698  and  _700
REMARK  278  A    between atoms: _700  and  _701
REMARK  279  A    between atoms: _700  and  _703
REMARK  280  A    between atoms: _703  and  _704
REMARK  281  A    between atoms: _706  and  _708
REMARK  282  A    between atoms: _708  and  _709
REMARK  283  A    between atoms: _711  and  _713
REMARK  284  A    between atoms: _713  and  _714
REMARK                            x       y       z     vdW  Elec       q    Type
REMARK                         _______ _______ _______ _____ _____    ______ ____
ROOT
ATOM      1  O   HOH     1      35.751   6.789  36.774  0.00  0.00    +0.000 OA
ENDROOT
TORSDOF 0
REMARK  Name = ../refined-set-2016/3gnw/3gnw_pocket.pdb
REMARK  284 active torsions:
REMARK  status: ('A' for Active; 'I' for Inactive)
REMARK    1  A    between atoms: _1  and  _3
REMARK    2  A    between atoms: _3  and  _4
REMARK    3  A    between atoms: _3  and  _6
REMARK    4  A    between atoms: _6  and  _7
REMARK    5  A    between atoms: _7  and  _8
REMARK    6  A    between atoms: _8  and  _9
REMARK    7  A    between atoms: _9  and  _10
REMARK    8  A    between atoms: _14  and  _16
REMARK    9  A    between atoms: _16  and  _17
REMARK   10  A    between atoms: _16  and  _19
REMARK   11  A    between atoms: _19  and  _20
REMARK   12  A    between atoms: _20  and  _21
REMARK   13  A    between atoms: _24  and  _26
REMARK   14  A    between atoms: _26  and  _27
REMARK   15  A    between atoms: _26  and  _29
REMARK   16  A    between atoms: _29  and  _30
REMARK   17  A    between atoms: _36  and  _38
REMARK   18  A    between atoms: _38  and  _39
REMARK   19  A    between atoms: _38  and  _41
REMARK   20  A    between atoms: _41  and  _42
REMARK   21  A    between atoms: _42  and  _43
REMARK   22  A    between atoms: _43  and  _44
REMARK   23  A    between atoms: _53  and  _55
REMARK   24  A    between atoms: _55  and  _56
REMARK   25  A    between atoms: _55  and  _58
REMARK   26  A    between atoms: _58  and  _59
REMARK   27  A    between atoms: _62  and  _64
REMARK   28  A    between atoms: _64  and  _65
REMARK   29  A    between atoms: _67  and  _69
REMARK   30  A    between atoms: _69  and  _70
REMARK   31  A    between atoms: _69  and  _72
REMARK   32  A    between atoms: _72  and  _73
REMARK   33  A    between atoms: _79  and  _81
REMARK   34  A    between atoms: _81  and  _82
REMARK   35  A    between atoms: _81  and  _84
REMARK   36  A    between atoms: _84  and  _85
REMARK   37  A    between atoms: _90  and  _91
REMARK   38  A    between atoms: _93  and  _95
REMARK   39  A    between atoms: _95  and  _96
REMARK   40  A    between atoms: _95  and  _98
REMARK   41  A    between atoms: _98  and  _99
REMARK   42  A    between atoms: _102  and  _103
REMARK   43  A    between atoms: _108  and  _110
REMARK   44  A    between atoms: _110  and  _111
REMARK   45  A    between atoms: _110  and  _113
REMARK   46  A    between atoms: _113  and  _114
REMARK   47  A    between atoms: _114  and  _115
REMARK   48  A    between atoms: _115  and  _116
REMARK   49  A    between atoms: _116  and  _117
REMARK   50  A    between atoms: _121  and  _123
REMARK   51  A    between atoms: _123  and  _124
REMARK   52  A    between atoms: _123  and  _126
REMARK   53  A    between atoms: _126  and  _127
REMARK   54  A    between atoms: _127  and  _128
REMARK   55  A    between atoms: _133  and  _135
REMARK   56  A    between atoms: _135  and  _136
REMARK   57  A    between atoms: _135  and  _138
REMARK   58  A    between atoms: _138  and  _139
REMARK   59  A    between atoms: _139  and  _140
REMARK   60  A    between atoms: _140  and  _141
REMARK   61  A    between atoms: _150  and  _152
REMARK   62  A    between atoms: _152  and  _153
REMARK   63  A    between atoms: _152  and  _155
REMARK   64  A    between atoms: _158  and  _160
REMARK   65  A    between atoms: _160  and  _161
REMARK   66  A    between atoms: _160  and  _163
REMARK   67  A    between atoms: _163  and  _164
REMARK   68  A    between atoms: _167  and  _169
REMARK   69  A    between atoms: _169  and  _170
REMARK   70  A    between atoms: _169  and  _172
REMARK   71  A    between atoms: _172  and  _173
REMARK   72  A    between atoms: _179  and  _181
REMARK   73  A    between atoms: _181  and  _182
REMARK   74  A    between atoms: _181  and  _184
REMARK   75  A    between atoms: _184  and  _185
REMARK   76  A    between atoms: _188  and  _190
REMARK   77  A    between atoms: _190  and  _191
REMARK   78  A    between atoms: _190  and  _193
REMARK   79  A    between atoms: _193  and  _194
REMARK   80  A    between atoms: _196  and  _198
REMARK   81  A    between atoms: _198  and  _199
REMARK   82  A    between atoms: _198  and  _201
REMARK   83  A    between atoms: _201  and  _202
REMARK   84  A    between atoms: _205  and  _207
REMARK   85  A    between atoms: _207  and  _208
REMARK   86  A    between atoms: _207  and  _210
REMARK   87  A    between atoms: _210  and  _211
REMARK   88  A    between atoms: _213  and  _215
REMARK   89  A    between atoms: _215  and  _216
REMARK   90  A    between atoms: _215  and  _218
REMARK   91  A    between atoms: _218  and  _219
REMARK   92  A    between atoms: _224  and  _226
REMARK   93  A    between atoms: _226  and  _227
REMARK   94  A    between atoms: _226  and  _229
REMARK   95  A    between atoms: _229  and  _230
REMARK   96  A    between atoms: _233  and  _235
REMARK   97  A    between atoms: _235  and  _236
REMARK   98  A    between atoms: _235  and  _238
REMARK   99  A    between atoms: _238  and  _239
REMARK  100  A    between atoms: _244  and  _246
REMARK  101  A    between atoms: _246  and  _247
REMARK  102  A    between atoms: _249  and  _251
REMARK  103  A    between atoms: _251  and  _252
REMARK  104  A    between atoms: _251  and  _254
REMARK  105  A    between atoms: _254  and  _255
REMARK  106  A    between atoms: _258  and  _260
REMARK  107  A    between atoms: _260  and  _261
REMARK  108  A    between atoms: _260  and  _263
REMARK  109  A    between atoms: _263  and  _264
REMARK  110  A    between atoms: _267  and  _269
REMARK  111  A    between atoms: _269  and  _270
REMARK  112  A    between atoms: _269  and  _272
REMARK  113  A    between atoms: _272  and  _273
REMARK  114  A    between atoms: _276  and  _278
REMARK  115  A    between atoms: _278  and  _279
REMARK  116  A    between atoms: _278  and  _281
REMARK  117  A    between atoms: _281  and  _282
REMARK  118  A    between atoms: _284  and  _286
REMARK  119  A    between atoms: _286  and  _287
REMARK  120  A    between atoms: _286  and  _289
REMARK  121  A    between atoms: _291  and  _293
REMARK  122  A    between atoms: _293  and  _294
REMARK  123  A    between atoms: _293  and  _296
REMARK  124  A    between atoms: _296  and  _297
REMARK  125  A    between atoms: _299  and  _301
REMARK  126  A    between atoms: _301  and  _302
REMARK  127  A    between atoms: _301  and  _304
REMARK  128  A    between atoms: _304  and  _305
REMARK  129  A    between atoms: _307  and  _309
REMARK  130  A    between atoms: _309  and  _310
REMARK  131  A    between atoms: _309  and  _312
REMARK  132  A    between atoms: _312  and  _313
REMARK  133  A    between atoms: _318  and  _320
REMARK  134  A    between atoms: _320  and  _321
REMARK  135  A    between atoms: _320  and  _323
REMARK  136  A    between atoms: _323  and  _324
REMARK  137  A    between atoms: _329  and  _330
REMARK  138  A    between atoms: _332  and  _334
REMARK  139  A    between atoms: _334  and  _335
REMARK  140  A    between atoms: _334  and  _337
REMARK  141  A    between atoms: _337  and  _338
REMARK  142  A    between atoms: _341  and  _343
REMARK  143  A    between atoms: _343  and  _344
REMARK  144  A    between atoms: _343  and  _346
REMARK  145  A    between atoms: _346  and  _347
REMARK  146  A    between atoms: _350  and  _352
REMARK  147  A    between atoms: _352  and  _353
REMARK  148  A    between atoms: _352  and  _355
REMARK  149  A    between atoms: _355  and  _356
REMARK  150  A    between atoms: _356  and  _357
REMARK  151  A    between atoms: _357  and  _358
REMARK  152  A    between atoms: _367  and  _369
REMARK  153  A    between atoms: _369  and  _370
REMARK  154  A    between atoms: _369  and  _372
REMARK  155  A    between atoms: _372  and  _373
REMARK  156  A    between atoms: _377  and  _378
REMARK  157  A    between atoms: _383  and  _385
REMARK  158  A    between atoms: _385  and  _386
REMARK  159  A    between atoms: _385  and  _388
REMARK  160  A    between atoms: _388  and  _389
REMARK  161  A    between atoms: _389  and  _390
REMARK  162  A    between atoms: _390  and  _391
REMARK  163  A    between atoms: _400  and  _402
REMARK  164  A    between atoms: _402  and  _403
REMARK  165  A    between atoms: _402  and  _405
REMARK  166  A    between atoms: _405  and  _406
REMARK  167  A    between atoms: _406  and  _407
REMARK  168  A    between atoms: _410  and  _412
REMARK  169  A    between atoms: _412  and  _413
REMARK  170  A    between atoms: _412  and  _415
REMARK  171  A    between atoms: _415  and  _416
REMARK  172  A    between atoms: _419  and  _421
REMARK  173  A    between atoms: _421  and  _422
REMARK  174  A    between atoms: _421  and  _424
REMARK  175  A    between atoms: _424  and  _425
REMARK  176  A    between atoms: _430  and  _432
REMARK  177  A    between atoms: _432  and  _433
REMARK  178  A    between atoms: _432  and  _435
REMARK  179  A    between atoms: _435  and  _436
REMARK  180  A    between atoms: _438  and  _440
REMARK  181  A    between atoms: _440  and  _441
REMARK  182  A    between atoms: _440  and  _443
REMARK  183  A    between atoms: _443  and  _444
REMARK  184  A    between atoms: _454  and  _456
REMARK  185  A    between atoms: _456  and  _457
REMARK  186  A    between atoms: _456  and  _459
REMARK  187  A    between atoms: _459  and  _460
REMARK  188  A    between atoms: _463  and  _465
REMARK  189  A    between atoms: _465  and  _466
REMARK  190  A    between atoms: _468  and  _470
REMARK  191  A    between atoms: _470  and  _471
REMARK  192  A    between atoms: _470  and  _473
REMARK  193  A    between atoms: _473  and  _474
REMARK  194  A    between atoms: _479  and  _481
REMARK  195  A    between atoms: _481  and  _482
REMARK  196  A    between atoms: _481  and  _484
REMARK  197  A    between atoms: _484  and  _485
REMARK  198  A    between atoms: _488  and  _490
REMARK  199  A    between atoms: _490  and  _491
REMARK  200  A    between atoms: _490  and  _493
REMARK  201  A    between atoms: _493  and  _494
REMARK  202  A    between atoms: _497  and  _499
REMARK  203  A    between atoms: _499  and  _500
REMARK  204  A    between atoms: _499  and  _502
REMARK  205  A    between atoms: _502  and  _503
REMARK  206  A    between atoms: _503  and  _504
REMARK  207  A    between atoms: _506  and  _508
REMARK  208  A    between atoms: _508  and  _509
REMARK  209  A    between atoms: _508  and  _511
REMARK  210  A    between atoms: _511  and  _512
REMARK  211  A    between atoms: _517  and  _518
REMARK  212  A    between atoms: _520  and  _522
REMARK  213  A    between atoms: _522  and  _523
REMARK  214  A    between atoms: _527  and  _528
REMARK  215  A    between atoms: _533  and  _535
REMARK  216  A    between atoms: _535  and  _536
REMARK  217  A    between atoms: _535  and  _538
REMARK  218  A    between atoms: _538  and  _539
REMARK  219  A    between atoms: _542  and  _544
REMARK  220  A    between atoms: _544  and  _545
REMARK  221  A    between atoms: _544  and  _547
REMARK  222  A    between atoms: _547  and  _548
REMARK  223  A    between atoms: _558  and  _560
REMARK  224  A    between atoms: _560  and  _561
REMARK  225  A    between atoms: _560  and  _563
REMARK  226  A    between atoms: _563  and  _564
REMARK  227  A    between atoms: _567  and  _569
REMARK  228  A    between atoms: _569  and  _570
REMARK  229  A    between atoms: _569  and  _572
REMARK  230  A    between atoms: _574  and  _576
REMARK  231  A    between atoms: _576  and  _577
REMARK  232  A    between atoms: _576  and  _579
REMARK  233  A    between atoms: _579  and  _580
REMARK  234  A    between atoms: _580  and  _581
REMARK  235  A    between atoms: _586  and  _588
REMARK  236  A    between atoms: _588  and  _589
REMARK  237  A    between atoms: _588  and  _591
REMARK  238  A    between atoms: _591  and  _592
REMARK  239  A    between atoms: _595  and  _597
REMARK  240  A    between atoms: _597  and  _598
REMARK  241  A    between atoms: _597  and  _600
REMARK  242  A    between atoms: _600  and  _601
REMARK  243  A    between atoms: _606  and  _607
REMARK  244  A    between atoms: _609  and  _611
REMARK  245  A    between atoms: _611  and  _612
REMARK  246  A    between atoms: _614  and  _616
REMARK  247  A    between atoms: _616  and  _617
REMARK  248  A    between atoms: _620  and  _622
REMARK  249  A    between atoms: _622  and  _623
REMARK  250  A    between atoms: _622  and  _625
REMARK  251  A    between atoms: _627  and  _629
REMARK  252  A    between atoms: _629  and  _630
REMARK  253  A    between atoms: _629  and  _632
REMARK  254  A    between atoms: _632  and  _633
REMARK  255  A    between atoms: _638  and  _639
REMARK  256  A    between atoms: _641  and  _643
REMARK  257  A    between atoms: _643  and  _644
REMARK  258  A    between atoms: _643  and  _646
REMARK  259  A    between atoms: _646  and  _647
REMARK  260  A    between atoms: _650  and  _652
REMARK  261  A    between atoms: _652  and  _653
REMARK  262  A    between atoms: _652  and  _655
REMARK  263  A    between atoms: _655  and  _656
REMARK  264  A    between atoms: _661  and  _663
REMARK  265  A    between atoms: _663  and  _664
REMARK  266  A    between atoms: _663  and  _666
REMARK  267  A    between atoms: _666  and  _667
REMARK  268  A    between atoms: _673  and  _675
REMARK  269  A    between atoms: _675  and  _676
REMARK  270  A    between atoms: _679  and  _681
REMARK  271  A    between atoms: _681  and  _682
REMARK  272  A    between atoms: _684  and  _686
REMARK  273  A    between atoms: _686  and  _687
REMARK  274  A    between atoms: _686  and  _689
REMARK  275  A    between atoms: _689  and  _690
REMARK  276  A    between atoms: _695  and  _696
REMARK  277  A    between atoms: _698  and  _700
REMARK  278  A    between atoms: _700  and  _701
REMARK  279  A    between atoms: _700  and  _703
REMARK  280  A    between atoms: _703  and  _704
REMARK  281  A    between atoms: _706  and  _708
REMARK  282  A    between atoms: _708  and  _709
REMARK  283  A    between atoms: _711  and  _713
REMARK  284  A    between atoms: _713  and  _714
REMARK                            x       y       z     vdW  Elec       q    Type
REMARK                         _______ _______ _______ _____ _____    ______ ____
ROOT
ATOM      1  O   HOH     1      32.937   9.582  44.582  0.00  0.00    +0.000 OA
ENDROOT
TORSDOF 0
REMARK  Name = ../refined-set-2016/3gnw/3gnw_pocket.pdb
REMARK  284 active torsions:
REMARK  status: ('A' for Active; 'I' for Inactive)
REMARK    1  A    between atoms: _1  and  _3
REMARK    2  A    between atoms: _3  and  _4
REMARK    3  A    between atoms: _3  and  _6
REMARK    4  A    between atoms: _6  and  _7
REMARK    5  A    between atoms: _7  and  _8
REMARK    6  A    between atoms: _8  and  _9
REMARK    7  A    between atoms: _9  and  _10
REMARK    8  A    between atoms: _14  and  _16
REMARK    9  A    between atoms: _16  and  _17
REMARK   10  A    between atoms: _16  and  _19
REMARK   11  A    between atoms: _19  and  _20
REMARK   12  A    between atoms: _20  and  _21
REMARK   13  A    between atoms: _24  and  _26
REMARK   14  A    between atoms: _26  and  _27
REMARK   15  A    between atoms: _26  and  _29
REMARK   16  A    between atoms: _29  and  _30
REMARK   17  A    between atoms: _36  and  _38
REMARK   18  A    between atoms: _38  and  _39
REMARK   19  A    between atoms: _38  and  _41
REMARK   20  A    between atoms: _41  and  _42
REMARK   21  A    between atoms: _42  and  _43
REMARK   22  A    between atoms: _43  and  _44
REMARK   23  A    between atoms: _53  and  _55
REMARK   24  A    between atoms: _55  and  _56
REMARK   25  A    between atoms: _55  and  _58
REMARK   26  A    between atoms: _58  and  _59
REMARK   27  A    between atoms: _62  and  _64
REMARK   28  A    between atoms: _64  and  _65
REMARK   29  A    between atoms: _67  and  _69
REMARK   30  A    between atoms: _69  and  _70
REMARK   31  A    between atoms: _69  and  _72
REMARK   32  A    between atoms: _72  and  _73
REMARK   33  A    between atoms: _79  and  _81
REMARK   34  A    between atoms: _81  and  _82
REMARK   35  A    between atoms: _81  and  _84
REMARK   36  A    between atoms: _84  and  _85
REMARK   37  A    between atoms: _90  and  _91
REMARK   38  A    between atoms: _93  and  _95
REMARK   39  A    between atoms: _95  and  _96
REMARK   40  A    between atoms: _95  and  _98
REMARK   41  A    between atoms: _98  and  _99
REMARK   42  A    between atoms: _102  and  _103
REMARK   43  A    between atoms: _108  and  _110
REMARK   44  A    between atoms: _110  and  _111
REMARK   45  A    between atoms: _110  and  _113
REMARK   46  A    between atoms: _113  and  _114
REMARK   47  A    between atoms: _114  and  _115
REMARK   48  A    between atoms: _115  and  _116
REMARK   49  A    between atoms: _116  and  _117
REMARK   50  A    between atoms: _121  and  _123
REMARK   51  A    between atoms: _123  and  _124
REMARK   52  A    between atoms: _123  and  _126
REMARK   53  A    between atoms: _126  and  _127
REMARK   54  A    between atoms: _127  and  _128
REMARK   55  A    between atoms: _133  and  _135
REMARK   56  A    between atoms: _135  and  _136
REMARK   57  A    between atoms: _135  and  _138
REMARK   58  A    between atoms: _138  and  _139
REMARK   59  A    between atoms: _139  and  _140
REMARK   60  A    between atoms: _140  and  _141
REMARK   61  A    between atoms: _150  and  _152
REMARK   62  A    between atoms: _152  and  _153
REMARK   63  A    between atoms: _152  and  _155
REMARK   64  A    between atoms: _158  and  _160
REMARK   65  A    between atoms: _160  and  _161
REMARK   66  A    between atoms: _160  and  _163
REMARK   67  A    between atoms: _163  and  _164
REMARK   68  A    between atoms: _167  and  _169
REMARK   69  A    between atoms: _169  and  _170
REMARK   70  A    between atoms: _169  and  _172
REMARK   71  A    between atoms: _172  and  _173
REMARK   72  A    between atoms: _179  and  _181
REMARK   73  A    between atoms: _181  and  _182
REMARK   74  A    between atoms: _181  and  _184
REMARK   75  A    between atoms: _184  and  _185
REMARK   76  A    between atoms: _188  and  _190
REMARK   77  A    between atoms: _190  and  _191
REMARK   78  A    between atoms: _190  and  _193
REMARK   79  A    between atoms: _193  and  _194
REMARK   80  A    between atoms: _196  and  _198
REMARK   81  A    between atoms: _198  and  _199
REMARK   82  A    between atoms: _198  and  _201
REMARK   83  A    between atoms: _201  and  _202
REMARK   84  A    between atoms: _205  and  _207
REMARK   85  A    between atoms: _207  and  _208
REMARK   86  A    between atoms: _207  and  _210
REMARK   87  A    between atoms: _210  and  _211
REMARK   88  A    between atoms: _213  and  _215
REMARK   89  A    between atoms: _215  and  _216
REMARK   90  A    between atoms: _215  and  _218
REMARK   91  A    between atoms: _218  and  _219
REMARK   92  A    between atoms: _224  and  _226
REMARK   93  A    between atoms: _226  and  _227
REMARK   94  A    between atoms: _226  and  _229
REMARK   95  A    between atoms: _229  and  _230
REMARK   96  A    between atoms: _233  and  _235
REMARK   97  A    between atoms: _235  and  _236
REMARK   98  A    between atoms: _235  and  _238
REMARK   99  A    between atoms: _238  and  _239
REMARK  100  A    between atoms: _244  and  _246
REMARK  101  A    between atoms: _246  and  _247
REMARK  102  A    between atoms: _249  and  _251
REMARK  103  A    between atoms: _251  and  _252
REMARK  104  A    between atoms: _251  and  _254
REMARK  105  A    between atoms: _254  and  _255
REMARK  106  A    between atoms: _258  and  _260
REMARK  107  A    between atoms: _260  and  _261
REMARK  108  A    between atoms: _260  and  _263
REMARK  109  A    between atoms: _263  and  _264
REMARK  110  A    between atoms: _267  and  _269
REMARK  111  A    between atoms: _269  and  _270
REMARK  112  A    between atoms: _269  and  _272
REMARK  113  A    between atoms: _272  and  _273
REMARK  114  A    between atoms: _276  and  _278
REMARK  115  A    between atoms: _278  and  _279
REMARK  116  A    between atoms: _278  and  _281
REMARK  117  A    between atoms: _281  and  _282
REMARK  118  A    between atoms: _284  and  _286
REMARK  119  A    between atoms: _286  and  _287
REMARK  120  A    between atoms: _286  and  _289
REMARK  121  A    between atoms: _291  and  _293
REMARK  122  A    between atoms: _293  and  _294
REMARK  123  A    between atoms: _293  and  _296
REMARK  124  A    between atoms: _296  and  _297
REMARK  125  A    between atoms: _299  and  _301
REMARK  126  A    between atoms: _301  and  _302
REMARK  127  A    between atoms: _301  and  _304
REMARK  128  A    between atoms: _304  and  _305
REMARK  129  A    between atoms: _307  and  _309
REMARK  130  A    between atoms: _309  and  _310
REMARK  131  A    between atoms: _309  and  _312
REMARK  132  A    between atoms: _312  and  _313
REMARK  133  A    between atoms: _318  and  _320
REMARK  134  A    between atoms: _320  and  _321
REMARK  135  A    between atoms: _320  and  _323
REMARK  136  A    between atoms: _323  and  _324
REMARK  137  A    between atoms: _329  and  _330
REMARK  138  A    between atoms: _332  and  _334
REMARK  139  A    between atoms: _334  and  _335
REMARK  140  A    between atoms: _334  and  _337
REMARK  141  A    between atoms: _337  and  _338
REMARK  142  A    between atoms: _341  and  _343
REMARK  143  A    between atoms: _343  and  _344
REMARK  144  A    between atoms: _343  and  _346
REMARK  145  A    between atoms: _346  and  _347
REMARK  146  A    between atoms: _350  and  _352
REMARK  147  A    between atoms: _352  and  _353
REMARK  148  A    between atoms: _352  and  _355
REMARK  149  A    between atoms: _355  and  _356
REMARK  150  A    between atoms: _356  and  _357
REMARK  151  A    between atoms: _357  and  _358
REMARK  152  A    between atoms: _367  and  _369
REMARK  153  A    between atoms: _369  and  _370
REMARK  154  A    between atoms: _369  and  _372
REMARK  155  A    between atoms: _372  and  _373
REMARK  156  A    between atoms: _377  and  _378
REMARK  157  A    between atoms: _383  and  _385
REMARK  158  A    between atoms: _385  and  _386
REMARK  159  A    between atoms: _385  and  _388
REMARK  160  A    between atoms: _388  and  _389
REMARK  161  A    between atoms: _389  and  _390
REMARK  162  A    between atoms: _390  and  _391
REMARK  163  A    between atoms: _400  and  _402
REMARK  164  A    between atoms: _402  and  _403
REMARK  165  A    between atoms: _402  and  _405
REMARK  166  A    between atoms: _405  and  _406
REMARK  167  A    between atoms: _406  and  _407
REMARK  168  A    between atoms: _410  and  _412
REMARK  169  A    between atoms: _412  and  _413
REMARK  170  A    between atoms: _412  and  _415
REMARK  171  A    between atoms: _415  and  _416
REMARK  172  A    between atoms: _419  and  _421
REMARK  173  A    between atoms: _421  and  _422
REMARK  174  A    between atoms: _421  and  _424
REMARK  175  A    between atoms: _424  and  _425
REMARK  176  A    between atoms: _430  and  _432
REMARK  177  A    between atoms: _432  and  _433
REMARK  178  A    between atoms: _432  and  _435
REMARK  179  A    between atoms: _435  and  _436
REMARK  180  A    between atoms: _438  and  _440
REMARK  181  A    between atoms: _440  and  _441
REMARK  182  A    between atoms: _440  and  _443
REMARK  183  A    between atoms: _443  and  _444
REMARK  184  A    between atoms: _454  and  _456
REMARK  185  A    between atoms: _456  and  _457
REMARK  186  A    between atoms: _456  and  _459
REMARK  187  A    between atoms: _459  and  _460
REMARK  188  A    between atoms: _463  and  _465
REMARK  189  A    between atoms: _465  and  _466
REMARK  190  A    between atoms: _468  and  _470
REMARK  191  A    between atoms: _470  and  _471
REMARK  192  A    between atoms: _470  and  _473
REMARK  193  A    between atoms: _473  and  _474
REMARK  194  A    between atoms: _479  and  _481
REMARK  195  A    between atoms: _481  and  _482
REMARK  196  A    between atoms: _481  and  _484
REMARK  197  A    between atoms: _484  and  _485
REMARK  198  A    between atoms: _488  and  _490
REMARK  199  A    between atoms: _490  and  _491
REMARK  200  A    between atoms: _490  and  _493
REMARK  201  A    between atoms: _493  and  _494
REMARK  202  A    between atoms: _497  and  _499
REMARK  203  A    between atoms: _499  and  _500
REMARK  204  A    between atoms: _499  and  _502
REMARK  205  A    between atoms: _502  and  _503
REMARK  206  A    between atoms: _503  and  _504
REMARK  207  A    between atoms: _506  and  _508
REMARK  208  A    between atoms: _508  and  _509
REMARK  209  A    between atoms: _508  and  _511
REMARK  210  A    between atoms: _511  and  _512
REMARK  211  A    between atoms: _517  and  _518
REMARK  212  A    between atoms: _520  and  _522
REMARK  213  A    between atoms: _522  and  _523
REMARK  214  A    between atoms: _527  and  _528
REMARK  215  A    between atoms: _533  and  _535
REMARK  216  A    between atoms: _535  and  _536
REMARK  217  A    between atoms: _535  and  _538
REMARK  218  A    between atoms: _538  and  _539
REMARK  219  A    between atoms: _542  and  _544
REMARK  220  A    between atoms: _544  and  _545
REMARK  221  A    between atoms: _544  and  _547
REMARK  222  A    between atoms: _547  and  _548
REMARK  223  A    between atoms: _558  and  _560
REMARK  224  A    between atoms: _560  and  _561
REMARK  225  A    between atoms: _560  and  _563
REMARK  226  A    between atoms: _563  and  _564
REMARK  227  A    between atoms: _567  and  _569
REMARK  228  A    between atoms: _569  and  _570
REMARK  229  A    between atoms: _569  and  _572
REMARK  230  A    between atoms: _574  and  _576
REMARK  231  A    between atoms: _576  and  _577
REMARK  232  A    between atoms: _576  and  _579
REMARK  233  A    between atoms: _579  and  _580
REMARK  234  A    between atoms: _580  and  _581
REMARK  235  A    between atoms: _586  and  _588
REMARK  236  A    between atoms: _588  and  _589
REMARK  237  A    between atoms: _588  and  _591
REMARK  238  A    between atoms: _591  and  _592
REMARK  239  A    between atoms: _595  and  _597
REMARK  240  A    between atoms: _597  and  _598
REMARK  241  A    between atoms: _597  and  _600
REMARK  242  A    between atoms: _600  and  _601
REMARK  243  A    between atoms: _606  and  _607
REMARK  244  A    between atoms: _609  and  _611
REMARK  245  A    between atoms: _611  and  _612
REMARK  246  A    between atoms: _614  and  _616
REMARK  247  A    between atoms: _616  and  _617
REMARK  248  A    between atoms: _620  and  _622
REMARK  249  A    between atoms: _622  and  _623
REMARK  250  A    between atoms: _622  and  _625
REMARK  251  A    between atoms: _627  and  _629
REMARK  252  A    between atoms: _629  and  _630
REMARK  253  A    between atoms: _629  and  _632
REMARK  254  A    between atoms: _632  and  _633
REMARK  255  A    between atoms: _638  and  _639
REMARK  256  A    between atoms: _641  and  _643
REMARK  257  A    between atoms: _643  and  _644
REMARK  258  A    between atoms: _643  and  _646
REMARK  259  A    between atoms: _646  and  _647
REMARK  260  A    between atoms: _650  and  _652
REMARK  261  A    between atoms: _652  and  _653
REMARK  262  A    between atoms: _652  and  _655
REMARK  263  A    between atoms: _655  and  _656
REMARK  264  A    between atoms: _661  and  _663
REMARK  265  A    between atoms: _663  and  _664
REMARK  266  A    between atoms: _663  and  _666
REMARK  267  A    between atoms: _666  and  _667
REMARK  268  A    between atoms: _673  and  _675
REMARK  269  A    between atoms: _675  and  _676
REMARK  270  A    between atoms: _679  and  _681
REMARK  271  A    between atoms: _681  and  _682
REMARK  272  A    between atoms: _684  and  _686
REMARK  273  A    between atoms: _686  and  _687
REMARK  274  A    between atoms: _686  and  _689
REMARK  275  A    between atoms: _689  and  _690
REMARK  276  A    between atoms: _695  and  _696
REMARK  277  A    between atoms: _698  and  _700
REMARK  278  A    between atoms: _700  and  _701
REMARK  279  A    between atoms: _700  and  _703
REMARK  280  A    between atoms: _703  and  _704
REMARK  281  A    between atoms: _706  and  _708
REMARK  282  A    between atoms: _708  and  _709
REMARK  283  A    between atoms: _711  and  _713
REMARK  284  A    between atoms: _713  and  _714
REMARK                            x       y       z     vdW  Elec       q    Type
REMARK                         _______ _______ _______ _____ _____    ______ ____
ROOT
ATOM      1  O   HOH     1      36.919   8.248  34.722  0.00  0.00    +0.000 OA
ENDROOT
TORSDOF 0
