REMARK  Name = ../refined-set-2016/3uxk/3uxk_pocket.pdb
REMARK  166 active torsions:
REMARK  status: ('A' for Active; 'I' for Inactive)
REMARK    1  A    between atoms: _1  and  _3
REMARK    2  A    between atoms: _3  and  _4
REMARK    3  A    between atoms: _3  and  _6
REMARK    4  A    between atoms: _6  and  _7
REMARK    5  A    between atoms: _11  and  _12
REMARK    6  A    between atoms: _17  and  _19
REMARK    7  A    between atoms: _19  and  _20
REMARK    8  A    between atoms: _19  and  _22
REMARK    9  A    between atoms: _25  and  _27
REMARK   10  A    between atoms: _27  and  _28
REMARK   11  A    between atoms: _27  and  _30
REMARK   12  A    between atoms: _30  and  _31
REMARK   13  A    between atoms: _36  and  _38
REMARK   14  A    between atoms: _38  and  _39
REMARK   15  A    between atoms: _38  and  _41
REMARK   16  A    between atoms: _41  and  _42
REMARK   17  A    between atoms: _45  and  _47
REMARK   18  A    between atoms: _47  and  _48
REMARK   19  A    between atoms: _51  and  _53
REMARK   20  A    between atoms: _53  and  _54
REMARK   21  A    between atoms: _53  and  _56
REMARK   22  A    between atoms: _59  and  _61
REMARK   23  A    between atoms: _61  and  _62
REMARK   24  A    between atoms: _64  and  _66
REMARK   25  A    between atoms: _66  and  _67
REMARK   26  A    between atoms: _66  and  _69
REMARK   27  A    between atoms: _69  and  _70
REMARK   28  A    between atoms: _73  and  _75
REMARK   29  A    between atoms: _75  and  _76
REMARK   30  A    between atoms: _75  and  _78
REMARK   31  A    between atoms: _81  and  _83
REMARK   32  A    between atoms: _83  and  _84
REMARK   33  A    between atoms: _83  and  _86
REMARK   34  A    between atoms: _86  and  _87
REMARK   35  A    between atoms: _90  and  _92
REMARK   36  A    between atoms: _92  and  _93
REMARK   37  A    between atoms: _92  and  _95
REMARK   38  A    between atoms: _95  and  _96
REMARK   39  A    between atoms: _102  and  _104
REMARK   40  A    between atoms: _104  and  _105
REMARK   41  A    between atoms: _104  and  _107
REMARK   42  A    between atoms: _107  and  _108
REMARK   43  A    between atoms: _113  and  _114
REMARK   44  A    between atoms: _116  and  _118
REMARK   45  A    between atoms: _118  and  _119
REMARK   46  A    between atoms: _118  and  _121
REMARK   47  A    between atoms: _121  and  _122
REMARK   48  A    between atoms: _127  and  _128
REMARK   49  A    between atoms: _130  and  _132
REMARK   50  A    between atoms: _132  and  _133
REMARK   51  A    between atoms: _132  and  _135
REMARK   52  A    between atoms: _135  and  _136
REMARK   53  A    between atoms: _138  and  _140
REMARK   54  A    between atoms: _140  and  _141
REMARK   55  A    between atoms: _140  and  _143
REMARK   56  A    between atoms: _143  and  _144
REMARK   57  A    between atoms: _149  and  _151
REMARK   58  A    between atoms: _151  and  _152
REMARK   59  A    between atoms: _151  and  _154
REMARK   60  A    between atoms: _154  and  _155
REMARK   61  A    between atoms: _157  and  _159
REMARK   62  A    between atoms: _159  and  _160
REMARK   63  A    between atoms: _159  and  _162
REMARK   64  A    between atoms: _162  and  _163
REMARK   65  A    between atoms: _163  and  _164
REMARK   66  A    between atoms: _164  and  _165
REMARK   67  A    between atoms: _165  and  _166
REMARK   68  A    between atoms: _170  and  _172
REMARK   69  A    between atoms: _172  and  _173
REMARK   70  A    between atoms: _172  and  _175
REMARK   71  A    between atoms: _175  and  _176
REMARK   72  A    between atoms: _179  and  _181
REMARK   73  A    between atoms: _181  and  _182
REMARK   74  A    between atoms: _181  and  _184
REMARK   75  A    between atoms: _184  and  _185
REMARK   76  A    between atoms: _185  and  _186
REMARK   77  A    between atoms: _186  and  _187
REMARK   78  A    between atoms: _187  and  _188
REMARK   79  A    between atoms: _192  and  _194
REMARK   80  A    between atoms: _194  and  _195
REMARK   81  A    between atoms: _194  and  _197
REMARK   82  A    between atoms: _197  and  _198
REMARK   83  A    between atoms: _201  and  _203
REMARK   84  A    between atoms: _203  and  _204
REMARK   85  A    between atoms: _203  and  _206
REMARK   86  A    between atoms: _206  and  _207
REMARK   87  A    between atoms: _212  and  _213
REMARK   88  A    between atoms: _215  and  _217
REMARK   89  A    between atoms: _217  and  _218
REMARK   90  A    between atoms: _217  and  _220
REMARK   91  A    between atoms: _220  and  _221
REMARK   92  A    between atoms: _226  and  _228
REMARK   93  A    between atoms: _228  and  _229
REMARK   94  A    between atoms: _228  and  _231
REMARK   95  A    between atoms: _231  and  _232
REMARK   96  A    between atoms: _232  and  _233
REMARK   97  A    between atoms: _238  and  _240
REMARK   98  A    between atoms: _240  and  _241
REMARK   99  A    between atoms: _240  and  _243
REMARK  100  A    between atoms: _243  and  _244
REMARK  101  A    between atoms: _254  and  _256
REMARK  102  A    between atoms: _256  and  _257
REMARK  103  A    between atoms: _256  and  _259
REMARK  104  A    between atoms: _259  and  _260
REMARK  105  A    between atoms: _260  and  _261
REMARK  106  A    between atoms: _261  and  _262
REMARK  107  A    between atoms: _262  and  MG_396
REMARK  108  A    between atoms: _264  and  _266
REMARK  109  A    between atoms: _266  and  _267
REMARK  110  A    between atoms: _266  and  _269
REMARK  111  A    between atoms: _269  and  _270
REMARK  112  A    between atoms: _270  and  _271
REMARK  113  A    between atoms: _274  and  _276
REMARK  114  A    between atoms: _276  and  _277
REMARK  115  A    between atoms: _276  and  _279
REMARK  116  A    between atoms: _279  and  _280
REMARK  117  A    between atoms: _280  and  _281
REMARK  118  A    between atoms: _286  and  _288
REMARK  119  A    between atoms: _288  and  _289
REMARK  120  A    between atoms: _288  and  _291
REMARK  121  A    between atoms: _291  and  _292
REMARK  122  A    between atoms: _292  and  _293
REMARK  123  A    between atoms: _296  and  _298
REMARK  124  A    between atoms: _298  and  _299
REMARK  125  A    between atoms: _298  and  _301
REMARK  126  A    between atoms: _301  and  _302
REMARK  127  A    between atoms: _307  and  _309
REMARK  128  A    between atoms: _309  and  _310
REMARK  129  A    between atoms: _309  and  _312
REMARK  130  A    between atoms: _312  and  _313
REMARK  131  A    between atoms: _313  and  _314
REMARK  132  A    between atoms: _316  and  _318
REMARK  133  A    between atoms: _318  and  _319
REMARK  134  A    between atoms: _318  and  _321
REMARK  135  A    between atoms: _321  and  _322
REMARK  136  A    between atoms: _325  and  _327
REMARK  137  A    between atoms: _327  and  _328
REMARK  138  A    between atoms: _327  and  _330
REMARK  139  A    between atoms: _330  and  _331
REMARK  140  A    between atoms: _333  and  _335
REMARK  141  A    between atoms: _335  and  _336
REMARK  142  A    between atoms: _335  and  _338
REMARK  143  A    between atoms: _338  and  _339
REMARK  144  A    between atoms: _344  and  _346
REMARK  145  A    between atoms: _346  and  _347
REMARK  146  A    between atoms: _346  and  _349
REMARK  147  A    between atoms: _349  and  _350
REMARK  148  A    between atoms: _353  and  _355
REMARK  149  A    between atoms: _355  and  _356
REMARK  150  A    between atoms: _355  and  _358
REMARK  151  A    between atoms: _358  and  _359
REMARK  152  A    between atoms: _359  and  _360
REMARK  153  A    between atoms: _363  and  _365
REMARK  154  A    between atoms: _365  and  _366
REMARK  155  A    between atoms: _365  and  _368
REMARK  156  A    between atoms: _368  and  _369
REMARK  157  A    between atoms: _372  and  _374
REMARK  158  A    between atoms: _374  and  _375
REMARK  159  A    between atoms: _374  and  _377
REMARK  160  A    between atoms: _377  and  _378
REMARK  161  A    between atoms: _381  and  _383
REMARK  162  A    between atoms: _383  and  _384
REMARK  163  A    between atoms: _383  and  _386
REMARK  164  A    between atoms: _386  and  _387
REMARK  165  A    between atoms: _390  and  _392
REMARK  166  A    between atoms: _392  and  _393
REMARK                            x       y       z     vdW  Elec       q    Type
REMARK                         _______ _______ _______ _____ _____    ______ ____
ROOT
ATOM      1  CA  LEU A   1      42.887 -44.465  23.591  0.00  0.00    +0.133 C 
ENDROOT
BRANCH   1   2
ATOM      2  N   LEU A   1      42.904 -43.136  22.947  0.00  0.00    -0.239 NA
ATOM      3  H   LEU A   1      43.776 -42.569  22.938  0.00  0.00    +0.142 HD
ENDBRANCH   1   2
BRANCH   1   4
ATOM      4  C   LEU A   1      43.035 -44.336  25.104  0.00  0.00    +0.224 C 
ATOM      5  O   LEU A   1      43.745 -43.433  25.609  0.00  0.00    -0.287 OA
ENDBRANCH   1   4
BRANCH   1   6
ATOM      6  CB  LEU A   1      43.967 -45.397  23.015  0.00  0.00    +0.025 C 
BRANCH   6   7
ATOM      7  CG  LEU A   1      44.054 -45.534  21.491  0.00  0.00    +0.002 C 
ATOM      8  CD2 LEU A   1      45.456 -45.930  21.066  0.00  0.00    +0.000 C 
ATOM      9  CD1 LEU A   1      43.019 -46.517  20.961  0.00  0.00    +0.000 C 
ENDBRANCH   6   7
ENDBRANCH   1   6
TORSDOF 4
REMARK  Name = ../refined-set-2016/3uxk/3uxk_pocket.pdb
REMARK  166 active torsions:
REMARK  status: ('A' for Active; 'I' for Inactive)
REMARK    1  A    between atoms: _1  and  _3
REMARK    2  A    between atoms: _3  and  _4
REMARK    3  A    between atoms: _3  and  _6
REMARK    4  A    between atoms: _6  and  _7
REMARK    5  A    between atoms: _11  and  _12
REMARK    6  A    between atoms: _17  and  _19
REMARK    7  A    between atoms: _19  and  _20
REMARK    8  A    between atoms: _19  and  _22
REMARK    9  A    between atoms: _25  and  _27
REMARK   10  A    between atoms: _27  and  _28
REMARK   11  A    between atoms: _27  and  _30
REMARK   12  A    between atoms: _30  and  _31
REMARK   13  A    between atoms: _36  and  _38
REMARK   14  A    between atoms: _38  and  _39
REMARK   15  A    between atoms: _38  and  _41
REMARK   16  A    between atoms: _41  and  _42
REMARK   17  A    between atoms: _45  and  _47
REMARK   18  A    between atoms: _47  and  _48
REMARK   19  A    between atoms: _51  and  _53
REMARK   20  A    between atoms: _53  and  _54
REMARK   21  A    between atoms: _53  and  _56
REMARK   22  A    between atoms: _59  and  _61
REMARK   23  A    between atoms: _61  and  _62
REMARK   24  A    between atoms: _64  and  _66
REMARK   25  A    between atoms: _66  and  _67
REMARK   26  A    between atoms: _66  and  _69
REMARK   27  A    between atoms: _69  and  _70
REMARK   28  A    between atoms: _73  and  _75
REMARK   29  A    between atoms: _75  and  _76
REMARK   30  A    between atoms: _75  and  _78
REMARK   31  A    between atoms: _81  and  _83
REMARK   32  A    between atoms: _83  and  _84
REMARK   33  A    between atoms: _83  and  _86
REMARK   34  A    between atoms: _86  and  _87
REMARK   35  A    between atoms: _90  and  _92
REMARK   36  A    between atoms: _92  and  _93
REMARK   37  A    between atoms: _92  and  _95
REMARK   38  A    between atoms: _95  and  _96
REMARK   39  A    between atoms: _102  and  _104
REMARK   40  A    between atoms: _104  and  _105
REMARK   41  A    between atoms: _104  and  _107
REMARK   42  A    between atoms: _107  and  _108
REMARK   43  A    between atoms: _113  and  _114
REMARK   44  A    between atoms: _116  and  _118
REMARK   45  A    between atoms: _118  and  _119
REMARK   46  A    between atoms: _118  and  _121
REMARK   47  A    between atoms: _121  and  _122
REMARK   48  A    between atoms: _127  and  _128
REMARK   49  A    between atoms: _130  and  _132
REMARK   50  A    between atoms: _132  and  _133
REMARK   51  A    between atoms: _132  and  _135
REMARK   52  A    between atoms: _135  and  _136
REMARK   53  A    between atoms: _138  and  _140
REMARK   54  A    between atoms: _140  and  _141
REMARK   55  A    between atoms: _140  and  _143
REMARK   56  A    between atoms: _143  and  _144
REMARK   57  A    between atoms: _149  and  _151
REMARK   58  A    between atoms: _151  and  _152
REMARK   59  A    between atoms: _151  and  _154
REMARK   60  A    between atoms: _154  and  _155
REMARK   61  A    between atoms: _157  and  _159
REMARK   62  A    between atoms: _159  and  _160
REMARK   63  A    between atoms: _159  and  _162
REMARK   64  A    between atoms: _162  and  _163
REMARK   65  A    between atoms: _163  and  _164
REMARK   66  A    between atoms: _164  and  _165
REMARK   67  A    between atoms: _165  and  _166
REMARK   68  A    between atoms: _170  and  _172
REMARK   69  A    between atoms: _172  and  _173
REMARK   70  A    between atoms: _172  and  _175
REMARK   71  A    between atoms: _175  and  _176
REMARK   72  A    between atoms: _179  and  _181
REMARK   73  A    between atoms: _181  and  _182
REMARK   74  A    between atoms: _181  and  _184
REMARK   75  A    between atoms: _184  and  _185
REMARK   76  A    between atoms: _185  and  _186
REMARK   77  A    between atoms: _186  and  _187
REMARK   78  A    between atoms: _187  and  _188
REMARK   79  A    between atoms: _192  and  _194
REMARK   80  A    between atoms: _194  and  _195
REMARK   81  A    between atoms: _194  and  _197
REMARK   82  A    between atoms: _197  and  _198
REMARK   83  A    between atoms: _201  and  _203
REMARK   84  A    between atoms: _203  and  _204
REMARK   85  A    between atoms: _203  and  _206
REMARK   86  A    between atoms: _206  and  _207
REMARK   87  A    between atoms: _212  and  _213
REMARK   88  A    between atoms: _215  and  _217
REMARK   89  A    between atoms: _217  and  _218
REMARK   90  A    between atoms: _217  and  _220
REMARK   91  A    between atoms: _220  and  _221
REMARK   92  A    between atoms: _226  and  _228
REMARK   93  A    between atoms: _228  and  _229
REMARK   94  A    between atoms: _228  and  _231
REMARK   95  A    between atoms: _231  and  _232
REMARK   96  A    between atoms: _232  and  _233
REMARK   97  A    between atoms: _238  and  _240
REMARK   98  A    between atoms: _240  and  _241
REMARK   99  A    between atoms: _240  and  _243
REMARK  100  A    between atoms: _243  and  _244
REMARK  101  A    between atoms: _254  and  _256
REMARK  102  A    between atoms: _256  and  _257
REMARK  103  A    between atoms: _256  and  _259
REMARK  104  A    between atoms: _259  and  _260
REMARK  105  A    between atoms: _260  and  _261
REMARK  106  A    between atoms: _261  and  _262
REMARK  107  A    between atoms: _262  and  MG_396
REMARK  108  A    between atoms: _264  and  _266
REMARK  109  A    between atoms: _266  and  _267
REMARK  110  A    between atoms: _266  and  _269
REMARK  111  A    between atoms: _269  and  _270
REMARK  112  A    between atoms: _270  and  _271
REMARK  113  A    between atoms: _274  and  _276
REMARK  114  A    between atoms: _276  and  _277
REMARK  115  A    between atoms: _276  and  _279
REMARK  116  A    between atoms: _279  and  _280
REMARK  117  A    between atoms: _280  and  _281
REMARK  118  A    between atoms: _286  and  _288
REMARK  119  A    between atoms: _288  and  _289
REMARK  120  A    between atoms: _288  and  _291
REMARK  121  A    between atoms: _291  and  _292
REMARK  122  A    between atoms: _292  and  _293
REMARK  123  A    between atoms: _296  and  _298
REMARK  124  A    between atoms: _298  and  _299
REMARK  125  A    between atoms: _298  and  _301
REMARK  126  A    between atoms: _301  and  _302
REMARK  127  A    between atoms: _307  and  _309
REMARK  128  A    between atoms: _309  and  _310
REMARK  129  A    between atoms: _309  and  _312
REMARK  130  A    between atoms: _312  and  _313
REMARK  131  A    between atoms: _313  and  _314
REMARK  132  A    between atoms: _316  and  _318
REMARK  133  A    between atoms: _318  and  _319
REMARK  134  A    between atoms: _318  and  _321
REMARK  135  A    between atoms: _321  and  _322
REMARK  136  A    between atoms: _325  and  _327
REMARK  137  A    between atoms: _327  and  _328
REMARK  138  A    between atoms: _327  and  _330
REMARK  139  A    between atoms: _330  and  _331
REMARK  140  A    between atoms: _333  and  _335
REMARK  141  A    between atoms: _335  and  _336
REMARK  142  A    between atoms: _335  and  _338
REMARK  143  A    between atoms: _338  and  _339
REMARK  144  A    between atoms: _344  and  _346
REMARK  145  A    between atoms: _346  and  _347
REMARK  146  A    between atoms: _346  and  _349
REMARK  147  A    between atoms: _349  and  _350
REMARK  148  A    between atoms: _353  and  _355
REMARK  149  A    between atoms: _355  and  _356
REMARK  150  A    between atoms: _355  and  _358
REMARK  151  A    between atoms: _358  and  _359
REMARK  152  A    between atoms: _359  and  _360
REMARK  153  A    between atoms: _363  and  _365
REMARK  154  A    between atoms: _365  and  _366
REMARK  155  A    between atoms: _365  and  _368
REMARK  156  A    between atoms: _368  and  _369
REMARK  157  A    between atoms: _372  and  _374
REMARK  158  A    between atoms: _374  and  _375
REMARK  159  A    between atoms: _374  and  _377
REMARK  160  A    between atoms: _377  and  _378
REMARK  161  A    between atoms: _381  and  _383
REMARK  162  A    between atoms: _383  and  _384
REMARK  163  A    between atoms: _383  and  _386
REMARK  164  A    between atoms: _386  and  _387
REMARK  165  A    between atoms: _390  and  _392
REMARK  166  A    between atoms: _392  and  _393
REMARK                            x       y       z     vdW  Elec       q    Type
REMARK                         _______ _______ _______ _____ _____    ______ ____
ROOT
ATOM      1  C   THR A   4      58.074 -47.822  22.132  0.00  0.00    +0.243 C 
ATOM      2  O   THR A   4      58.250 -46.626  22.387  0.00  0.00    -0.273 OA
ATOM      3  N   ALA A   5      59.073 -48.696  21.994  0.00  0.00    -0.297 N 
ATOM      4  H   ALA A   5      58.838 -49.698  21.842  0.00  0.00    +0.150 HD
ENDROOT
BRANCH   3   5
ATOM      5  CA  ALA A   5      60.483 -48.310  22.047  0.00  0.00    +0.149 C 
ATOM      6  CB  ALA A   5      61.369 -49.553  21.989  0.00  0.00    +0.031 C 
BRANCH   5   7
ATOM      7  C   ALA A   5      60.877 -47.337  20.921  0.00  0.00    +0.241 C 
ATOM      8  O   ALA A   5      61.915 -46.673  21.020  0.00  0.00    -0.273 OA
ATOM      9  N   VAL A   6      60.066 -47.257  19.859  0.00  0.00    -0.297 N 
ATOM     10  H   VAL A   6      59.221 -47.862  19.822  0.00  0.00    +0.150 HD
BRANCH   9  11
ATOM     11  CA  VAL A   6      60.335 -46.340  18.745  0.00  0.00    +0.149 C 
BRANCH  11  12
ATOM     12  C   VAL A   6      59.353 -45.155  18.645  0.00  0.00    +0.241 C 
ATOM     13  N   GLY A   7      58.574 -44.918  19.701  0.00  0.00    -0.295 N 
ATOM     14  H   GLY A   7      58.692 -45.499  20.555  0.00  0.00    +0.150 HD
ATOM     15  O   VAL A   6      59.316 -44.467  17.608  0.00  0.00    -0.273 OA
BRANCH  13  16
ATOM     16  CA  GLY A   7      57.556 -43.862  19.694  0.00  0.00    +0.176 C 
BRANCH  16  17
ATOM     17  C   GLY A   7      56.191 -44.291  20.233  0.00  0.00    +0.243 C 
ATOM     18  N   THR A   8      55.382 -43.305  20.609  0.00  0.00    -0.295 N 
ATOM     19  H   THR A   8      55.717 -42.324  20.524  0.00  0.00    +0.150 HD
ATOM     20  O   GLY A   7      55.874 -45.490  20.308  0.00  0.00    -0.273 OA
BRANCH  18  21
ATOM     21  CA  THR A   8      54.040 -43.547  21.137  0.00  0.00    +0.176 C 
BRANCH  21  22
ATOM     22  C   THR A   8      52.954 -43.371  20.058  0.00  0.00    +0.243 C 
ATOM     23  N   VAL A   9      52.022 -44.327  20.003  0.00  0.00    -0.298 N 
ATOM     24  H   VAL A   9      52.193 -45.220  20.508  0.00  0.00    +0.150 HD
ATOM     25  O   THR A   8      52.990 -42.418  19.282  0.00  0.00    -0.273 OA
BRANCH  23  26
ATOM     26  CA  VAL A   9      50.773 -44.170  19.263  0.00  0.00    +0.137 C 
BRANCH  26  27
ATOM     27  CB  VAL A   9      50.386 -45.492  18.544  0.00  0.00    +0.026 C 
ATOM     28  CG2 VAL A   9      49.006 -45.406  17.912  0.00  0.00    +0.002 C 
ATOM     29  CG1 VAL A   9      51.418 -45.821  17.479  0.00  0.00    +0.002 C 
ENDBRANCH  26  27
BRANCH  26  30
ATOM     30  C   VAL A   9      49.719 -43.704  20.292  0.00  0.00    +0.227 C 
ATOM     31  O   VAL A   9      49.147 -44.517  21.029  0.00  0.00    -0.286 OA
ENDBRANCH  26  30
ENDBRANCH  23  26
ENDBRANCH  21  22
BRANCH  21  32
ATOM     32  CB  THR A   8      53.759 -42.664  22.380  0.00  0.00    +0.137 C 
ATOM     33  CG2 THR A   8      52.284 -42.753  22.821  0.00  0.00    +0.034 C 
BRANCH  32  34
ATOM     34  OG1 THR A   8      54.593 -43.091  23.467  0.00  0.00    -0.382 OA
ATOM     35  HG1 THR A   8      54.395 -44.037  23.681  0.00  0.00    +0.210 HD
ENDBRANCH  32  34
ENDBRANCH  21  32
ENDBRANCH  18  21
ENDBRANCH  16  17
ENDBRANCH  13  16
ENDBRANCH  11  12
BRANCH  11  36
ATOM     36  CB  VAL A   6      60.428 -47.061  17.362  0.00  0.00    +0.027 C 
ATOM     37  CG2 VAL A   6      61.704 -47.903  17.259  0.00  0.00    +0.002 C 
ATOM     38  CG1 VAL A   6      59.166 -47.861  17.054  0.00  0.00    +0.002 C 
ENDBRANCH  11  36
ENDBRANCH   9  11
ENDBRANCH   5   7
ENDBRANCH   3   5
BRANCH   1  39
ATOM     39  CA  THR A   4      56.652 -48.381  21.938  0.00  0.00    +0.176 C 
BRANCH  39  42
ATOM     40  C   HIS A   3      54.746 -47.764  23.353  0.00  0.00    +0.241 C 
ATOM     41  O   HIS A   3      54.538 -48.946  23.667  0.00  0.00    -0.273 OA
ATOM     42  N   THR A   4      55.662 -47.414  22.444  0.00  0.00    -0.295 N 
ATOM     43  H   THR A   4      55.676 -46.438  22.086  0.00  0.00    +0.150 HD
BRANCH  40  44
ATOM     44  CA  HIS A   3      53.913 -46.641  23.959  0.00  0.00    +0.155 C 
BRANCH  44  46
ATOM     45  C   VAL A   2      51.832 -47.027  22.712  0.00  0.00    +0.241 C 
ATOM     46  N   HIS A   3      52.489 -46.980  23.874  0.00  0.00    -0.297 N 
ATOM     47  H   HIS A   3      51.971 -47.192  24.751  0.00  0.00    +0.150 HD
ATOM     48  O   VAL A   2      52.322 -46.673  21.634  0.00  0.00    -0.273 OA
BRANCH  45  49
ATOM     49  CA  VAL A   2      50.393 -47.532  22.798  0.00  0.00    +0.148 C 
BRANCH  49  52
ATOM     50  C   PRO A   1      49.248 -46.093  24.322  0.00  0.00    +0.239 C 
ATOM     51  O   PRO A   1      49.750 -46.679  25.289  0.00  0.00    -0.274 OA
ATOM     52  N   VAL A   2      49.493 -46.435  23.070  0.00  0.00    -0.297 N 
ATOM     53  H   VAL A   2      49.042 -45.919  22.287  0.00  0.00    +0.150 HD
BRANCH  50  58
ATOM     54  N   PRO A   1      47.433 -45.245  25.701  0.00  0.00    -0.210 NA
ATOM     55  CD  PRO A   1      47.363 -44.122  26.659  0.00  0.00    +0.089 C 
ATOM     56  CG  PRO A   1      48.137 -43.015  25.977  0.00  0.00    +0.021 C 
ATOM     57  CB  PRO A   1      49.039 -43.678  24.974  0.00  0.00    +0.028 C 
ATOM     58  CA  PRO A   1      48.278 -44.942  24.542  0.00  0.00    +0.149 C 
ENDBRANCH  50  58
ENDBRANCH  49  52
BRANCH  49  59
ATOM     59  CB  VAL A   2      49.980 -48.336  21.555  0.00  0.00    +0.027 C 
ATOM     60  CG2 VAL A   2      48.539 -48.791  21.709  0.00  0.00    +0.002 C 
ATOM     61  CG1 VAL A   2      50.903 -49.547  21.385  0.00  0.00    +0.002 C 
ENDBRANCH  49  59
ENDBRANCH  45  49
ENDBRANCH  44  46
BRANCH  44  62
ATOM     62  CB  HIS A   3      54.316 -46.399  25.406  0.00  0.00    +0.076 C 
BRANCH  62  63
ATOM     63  CG  HIS A   3      53.481 -45.358  26.127  0.00  0.00    +0.082 A 
ATOM     64  CD2 HIS A   3      52.635 -45.471  27.233  0.00  0.00    +0.115 A 
ATOM     65  NE2 HIS A   3      52.153 -44.243  27.497  0.00  0.00    -0.221 NA
ATOM     66  CE1 HIS A   3      52.665 -43.373  26.606  0.00  0.00    +0.199 A 
ATOM     67  ND1 HIS A   3      53.478 -44.053  25.779  0.00  0.00    -0.227 NA
ENDBRANCH  62  63
ENDBRANCH  44  62
ENDBRANCH  40  44
ENDBRANCH  39  42
BRANCH  39  68
ATOM     68  CB  THR A   4      56.431 -48.802  20.440  0.00  0.00    +0.137 C 
ATOM     69  CG2 THR A   4      54.947 -48.861  20.053  0.00  0.00    +0.034 C 
BRANCH  68  70
ATOM     70  OG1 THR A   4      57.106 -47.893  19.566  0.00  0.00    -0.382 OA
ATOM     71  HG1 THR A   4      56.749 -46.980  19.702  0.00  0.00    +0.210 HD
ENDBRANCH  68  70
ENDBRANCH  39  68
ENDBRANCH   1  39
TORSDOF 26
REMARK  Name = ../refined-set-2016/3uxk/3uxk_pocket.pdb
REMARK  166 active torsions:
REMARK  status: ('A' for Active; 'I' for Inactive)
REMARK    1  A    between atoms: _1  and  _3
REMARK    2  A    between atoms: _3  and  _4
REMARK    3  A    between atoms: _3  and  _6
REMARK    4  A    between atoms: _6  and  _7
REMARK    5  A    between atoms: _11  and  _12
REMARK    6  A    between atoms: _17  and  _19
REMARK    7  A    between atoms: _19  and  _20
REMARK    8  A    between atoms: _19  and  _22
REMARK    9  A    between atoms: _25  and  _27
REMARK   10  A    between atoms: _27  and  _28
REMARK   11  A    between atoms: _27  and  _30
REMARK   12  A    between atoms: _30  and  _31
REMARK   13  A    between atoms: _36  and  _38
REMARK   14  A    between atoms: _38  and  _39
REMARK   15  A    between atoms: _38  and  _41
REMARK   16  A    between atoms: _41  and  _42
REMARK   17  A    between atoms: _45  and  _47
REMARK   18  A    between atoms: _47  and  _48
REMARK   19  A    between atoms: _51  and  _53
REMARK   20  A    between atoms: _53  and  _54
REMARK   21  A    between atoms: _53  and  _56
REMARK   22  A    between atoms: _59  and  _61
REMARK   23  A    between atoms: _61  and  _62
REMARK   24  A    between atoms: _64  and  _66
REMARK   25  A    between atoms: _66  and  _67
REMARK   26  A    between atoms: _66  and  _69
REMARK   27  A    between atoms: _69  and  _70
REMARK   28  A    between atoms: _73  and  _75
REMARK   29  A    between atoms: _75  and  _76
REMARK   30  A    between atoms: _75  and  _78
REMARK   31  A    between atoms: _81  and  _83
REMARK   32  A    between atoms: _83  and  _84
REMARK   33  A    between atoms: _83  and  _86
REMARK   34  A    between atoms: _86  and  _87
REMARK   35  A    between atoms: _90  and  _92
REMARK   36  A    between atoms: _92  and  _93
REMARK   37  A    between atoms: _92  and  _95
REMARK   38  A    between atoms: _95  and  _96
REMARK   39  A    between atoms: _102  and  _104
REMARK   40  A    between atoms: _104  and  _105
REMARK   41  A    between atoms: _104  and  _107
REMARK   42  A    between atoms: _107  and  _108
REMARK   43  A    between atoms: _113  and  _114
REMARK   44  A    between atoms: _116  and  _118
REMARK   45  A    between atoms: _118  and  _119
REMARK   46  A    between atoms: _118  and  _121
REMARK   47  A    between atoms: _121  and  _122
REMARK   48  A    between atoms: _127  and  _128
REMARK   49  A    between atoms: _130  and  _132
REMARK   50  A    between atoms: _132  and  _133
REMARK   51  A    between atoms: _132  and  _135
REMARK   52  A    between atoms: _135  and  _136
REMARK   53  A    between atoms: _138  and  _140
REMARK   54  A    between atoms: _140  and  _141
REMARK   55  A    between atoms: _140  and  _143
REMARK   56  A    between atoms: _143  and  _144
REMARK   57  A    between atoms: _149  and  _151
REMARK   58  A    between atoms: _151  and  _152
REMARK   59  A    between atoms: _151  and  _154
REMARK   60  A    between atoms: _154  and  _155
REMARK   61  A    between atoms: _157  and  _159
REMARK   62  A    between atoms: _159  and  _160
REMARK   63  A    between atoms: _159  and  _162
REMARK   64  A    between atoms: _162  and  _163
REMARK   65  A    between atoms: _163  and  _164
REMARK   66  A    between atoms: _164  and  _165
REMARK   67  A    between atoms: _165  and  _166
REMARK   68  A    between atoms: _170  and  _172
REMARK   69  A    between atoms: _172  and  _173
REMARK   70  A    between atoms: _172  and  _175
REMARK   71  A    between atoms: _175  and  _176
REMARK   72  A    between atoms: _179  and  _181
REMARK   73  A    between atoms: _181  and  _182
REMARK   74  A    between atoms: _181  and  _184
REMARK   75  A    between atoms: _184  and  _185
REMARK   76  A    between atoms: _185  and  _186
REMARK   77  A    between atoms: _186  and  _187
REMARK   78  A    between atoms: _187  and  _188
REMARK   79  A    between atoms: _192  and  _194
REMARK   80  A    between atoms: _194  and  _195
REMARK   81  A    between atoms: _194  and  _197
REMARK   82  A    between atoms: _197  and  _198
REMARK   83  A    between atoms: _201  and  _203
REMARK   84  A    between atoms: _203  and  _204
REMARK   85  A    between atoms: _203  and  _206
REMARK   86  A    between atoms: _206  and  _207
REMARK   87  A    between atoms: _212  and  _213
REMARK   88  A    between atoms: _215  and  _217
REMARK   89  A    between atoms: _217  and  _218
REMARK   90  A    between atoms: _217  and  _220
REMARK   91  A    between atoms: _220  and  _221
REMARK   92  A    between atoms: _226  and  _228
REMARK   93  A    between atoms: _228  and  _229
REMARK   94  A    between atoms: _228  and  _231
REMARK   95  A    between atoms: _231  and  _232
REMARK   96  A    between atoms: _232  and  _233
REMARK   97  A    between atoms: _238  and  _240
REMARK   98  A    between atoms: _240  and  _241
REMARK   99  A    between atoms: _240  and  _243
REMARK  100  A    between atoms: _243  and  _244
REMARK  101  A    between atoms: _254  and  _256
REMARK  102  A    between atoms: _256  and  _257
REMARK  103  A    between atoms: _256  and  _259
REMARK  104  A    between atoms: _259  and  _260
REMARK  105  A    between atoms: _260  and  _261
REMARK  106  A    between atoms: _261  and  _262
REMARK  107  A    between atoms: _262  and  MG_396
REMARK  108  A    between atoms: _264  and  _266
REMARK  109  A    between atoms: _266  and  _267
REMARK  110  A    between atoms: _266  and  _269
REMARK  111  A    between atoms: _269  and  _270
REMARK  112  A    between atoms: _270  and  _271
REMARK  113  A    between atoms: _274  and  _276
REMARK  114  A    between atoms: _276  and  _277
REMARK  115  A    between atoms: _276  and  _279
REMARK  116  A    between atoms: _279  and  _280
REMARK  117  A    between atoms: _280  and  _281
REMARK  118  A    between atoms: _286  and  _288
REMARK  119  A    between atoms: _288  and  _289
REMARK  120  A    between atoms: _288  and  _291
REMARK  121  A    between atoms: _291  and  _292
REMARK  122  A    between atoms: _292  and  _293
REMARK  123  A    between atoms: _296  and  _298
REMARK  124  A    between atoms: _298  and  _299
REMARK  125  A    between atoms: _298  and  _301
REMARK  126  A    between atoms: _301  and  _302
REMARK  127  A    between atoms: _307  and  _309
REMARK  128  A    between atoms: _309  and  _310
REMARK  129  A    between atoms: _309  and  _312
REMARK  130  A    between atoms: _312  and  _313
REMARK  131  A    between atoms: _313  and  _314
REMARK  132  A    between atoms: _316  and  _318
REMARK  133  A    between atoms: _318  and  _319
REMARK  134  A    between atoms: _318  and  _321
REMARK  135  A    between atoms: _321  and  _322
REMARK  136  A    between atoms: _325  and  _327
REMARK  137  A    between atoms: _327  and  _328
REMARK  138  A    between atoms: _327  and  _330
REMARK  139  A    between atoms: _330  and  _331
REMARK  140  A    between atoms: _333  and  _335
REMARK  141  A    between atoms: _335  and  _336
REMARK  142  A    between atoms: _335  and  _338
REMARK  143  A    between atoms: _338  and  _339
REMARK  144  A    between atoms: _344  and  _346
REMARK  145  A    between atoms: _346  and  _347
REMARK  146  A    between atoms: _346  and  _349
REMARK  147  A    between atoms: _349  and  _350
REMARK  148  A    between atoms: _353  and  _355
REMARK  149  A    between atoms: _355  and  _356
REMARK  150  A    between atoms: _355  and  _358
REMARK  151  A    between atoms: _358  and  _359
REMARK  152  A    between atoms: _359  and  _360
REMARK  153  A    between atoms: _363  and  _365
REMARK  154  A    between atoms: _365  and  _366
REMARK  155  A    between atoms: _365  and  _368
REMARK  156  A    between atoms: _368  and  _369
REMARK  157  A    between atoms: _372  and  _374
REMARK  158  A    between atoms: _374  and  _375
REMARK  159  A    between atoms: _374  and  _377
REMARK  160  A    between atoms: _377  and  _378
REMARK  161  A    between atoms: _381  and  _383
REMARK  162  A    between atoms: _383  and  _384
REMARK  163  A    between atoms: _383  and  _386
REMARK  164  A    between atoms: _386  and  _387
REMARK  165  A    between atoms: _390  and  _392
REMARK  166  A    between atoms: _392  and  _393
REMARK                            x       y       z     vdW  Elec       q    Type
REMARK                         _______ _______ _______ _____ _____    ______ ____
ROOT
ATOM      1  CA  THR A   1      45.409 -42.160  19.388  0.00  0.00    +0.160 C 
ENDROOT
BRANCH   1   2
ATOM      2  N   THR A   1      46.790 -42.010  19.870  0.00  0.00    -0.237 NA
ATOM      3  H   THR A   1      47.545 -41.933  19.159  0.00  0.00    +0.142 HD
ENDBRANCH   1   2
BRANCH   1   4
ATOM      4  CB  THR A   1      44.879 -40.855  18.746  0.00  0.00    +0.134 C 
ATOM      5  CG2 THR A   1      44.938 -39.680  19.721  0.00  0.00    +0.034 C 
BRANCH   4   6
ATOM      6  OG1 THR A   1      45.662 -40.559  17.576  0.00  0.00    -0.383 OA
ATOM      7  HG1 THR A   1      45.584 -41.306  16.931  0.00  0.00    +0.210 HD
ENDBRANCH   4   6
ENDBRANCH   1   4
BRANCH   1   8
ATOM      8  C   THR A   1      45.400 -43.192  18.273  0.00  0.00    +0.227 C 
ATOM      9  O   THR A   1      46.453 -43.508  17.701  0.00  0.00    -0.287 OA
ENDBRANCH   1   8
TORSDOF 4
REMARK  Name = ../refined-set-2016/3uxk/3uxk_pocket.pdb
REMARK  166 active torsions:
REMARK  status: ('A' for Active; 'I' for Inactive)
REMARK    1  A    between atoms: _1  and  _3
REMARK    2  A    between atoms: _3  and  _4
REMARK    3  A    between atoms: _3  and  _6
REMARK    4  A    between atoms: _6  and  _7
REMARK    5  A    between atoms: _11  and  _12
REMARK    6  A    between atoms: _17  and  _19
REMARK    7  A    between atoms: _19  and  _20
REMARK    8  A    between atoms: _19  and  _22
REMARK    9  A    between atoms: _25  and  _27
REMARK   10  A    between atoms: _27  and  _28
REMARK   11  A    between atoms: _27  and  _30
REMARK   12  A    between atoms: _30  and  _31
REMARK   13  A    between atoms: _36  and  _38
REMARK   14  A    between atoms: _38  and  _39
REMARK   15  A    between atoms: _38  and  _41
REMARK   16  A    between atoms: _41  and  _42
REMARK   17  A    between atoms: _45  and  _47
REMARK   18  A    between atoms: _47  and  _48
REMARK   19  A    between atoms: _51  and  _53
REMARK   20  A    between atoms: _53  and  _54
REMARK   21  A    between atoms: _53  and  _56
REMARK   22  A    between atoms: _59  and  _61
REMARK   23  A    between atoms: _61  and  _62
REMARK   24  A    between atoms: _64  and  _66
REMARK   25  A    between atoms: _66  and  _67
REMARK   26  A    between atoms: _66  and  _69
REMARK   27  A    between atoms: _69  and  _70
REMARK   28  A    between atoms: _73  and  _75
REMARK   29  A    between atoms: _75  and  _76
REMARK   30  A    between atoms: _75  and  _78
REMARK   31  A    between atoms: _81  and  _83
REMARK   32  A    between atoms: _83  and  _84
REMARK   33  A    between atoms: _83  and  _86
REMARK   34  A    between atoms: _86  and  _87
REMARK   35  A    between atoms: _90  and  _92
REMARK   36  A    between atoms: _92  and  _93
REMARK   37  A    between atoms: _92  and  _95
REMARK   38  A    between atoms: _95  and  _96
REMARK   39  A    between atoms: _102  and  _104
REMARK   40  A    between atoms: _104  and  _105
REMARK   41  A    between atoms: _104  and  _107
REMARK   42  A    between atoms: _107  and  _108
REMARK   43  A    between atoms: _113  and  _114
REMARK   44  A    between atoms: _116  and  _118
REMARK   45  A    between atoms: _118  and  _119
REMARK   46  A    between atoms: _118  and  _121
REMARK   47  A    between atoms: _121  and  _122
REMARK   48  A    between atoms: _127  and  _128
REMARK   49  A    between atoms: _130  and  _132
REMARK   50  A    between atoms: _132  and  _133
REMARK   51  A    between atoms: _132  and  _135
REMARK   52  A    between atoms: _135  and  _136
REMARK   53  A    between atoms: _138  and  _140
REMARK   54  A    between atoms: _140  and  _141
REMARK   55  A    between atoms: _140  and  _143
REMARK   56  A    between atoms: _143  and  _144
REMARK   57  A    between atoms: _149  and  _151
REMARK   58  A    between atoms: _151  and  _152
REMARK   59  A    between atoms: _151  and  _154
REMARK   60  A    between atoms: _154  and  _155
REMARK   61  A    between atoms: _157  and  _159
REMARK   62  A    between atoms: _159  and  _160
REMARK   63  A    between atoms: _159  and  _162
REMARK   64  A    between atoms: _162  and  _163
REMARK   65  A    between atoms: _163  and  _164
REMARK   66  A    between atoms: _164  and  _165
REMARK   67  A    between atoms: _165  and  _166
REMARK   68  A    between atoms: _170  and  _172
REMARK   69  A    between atoms: _172  and  _173
REMARK   70  A    between atoms: _172  and  _175
REMARK   71  A    between atoms: _175  and  _176
REMARK   72  A    between atoms: _179  and  _181
REMARK   73  A    between atoms: _181  and  _182
REMARK   74  A    between atoms: _181  and  _184
REMARK   75  A    between atoms: _184  and  _185
REMARK   76  A    between atoms: _185  and  _186
REMARK   77  A    between atoms: _186  and  _187
REMARK   78  A    between atoms: _187  and  _188
REMARK   79  A    between atoms: _192  and  _194
REMARK   80  A    between atoms: _194  and  _195
REMARK   81  A    between atoms: _194  and  _197
REMARK   82  A    between atoms: _197  and  _198
REMARK   83  A    between atoms: _201  and  _203
REMARK   84  A    between atoms: _203  and  _204
REMARK   85  A    between atoms: _203  and  _206
REMARK   86  A    between atoms: _206  and  _207
REMARK   87  A    between atoms: _212  and  _213
REMARK   88  A    between atoms: _215  and  _217
REMARK   89  A    between atoms: _217  and  _218
REMARK   90  A    between atoms: _217  and  _220
REMARK   91  A    between atoms: _220  and  _221
REMARK   92  A    between atoms: _226  and  _228
REMARK   93  A    between atoms: _228  and  _229
REMARK   94  A    between atoms: _228  and  _231
REMARK   95  A    between atoms: _231  and  _232
REMARK   96  A    between atoms: _232  and  _233
REMARK   97  A    between atoms: _238  and  _240
REMARK   98  A    between atoms: _240  and  _241
REMARK   99  A    between atoms: _240  and  _243
REMARK  100  A    between atoms: _243  and  _244
REMARK  101  A    between atoms: _254  and  _256
REMARK  102  A    between atoms: _256  and  _257
REMARK  103  A    between atoms: _256  and  _259
REMARK  104  A    between atoms: _259  and  _260
REMARK  105  A    between atoms: _260  and  _261
REMARK  106  A    between atoms: _261  and  _262
REMARK  107  A    between atoms: _262  and  MG_396
REMARK  108  A    between atoms: _264  and  _266
REMARK  109  A    between atoms: _266  and  _267
REMARK  110  A    between atoms: _266  and  _269
REMARK  111  A    between atoms: _269  and  _270
REMARK  112  A    between atoms: _270  and  _271
REMARK  113  A    between atoms: _274  and  _276
REMARK  114  A    between atoms: _276  and  _277
REMARK  115  A    between atoms: _276  and  _279
REMARK  116  A    between atoms: _279  and  _280
REMARK  117  A    between atoms: _280  and  _281
REMARK  118  A    between atoms: _286  and  _288
REMARK  119  A    between atoms: _288  and  _289
REMARK  120  A    between atoms: _288  and  _291
REMARK  121  A    between atoms: _291  and  _292
REMARK  122  A    between atoms: _292  and  _293
REMARK  123  A    between atoms: _296  and  _298
REMARK  124  A    between atoms: _298  and  _299
REMARK  125  A    between atoms: _298  and  _301
REMARK  126  A    between atoms: _301  and  _302
REMARK  127  A    between atoms: _307  and  _309
REMARK  128  A    between atoms: _309  and  _310
REMARK  129  A    between atoms: _309  and  _312
REMARK  130  A    between atoms: _312  and  _313
REMARK  131  A    between atoms: _313  and  _314
REMARK  132  A    between atoms: _316  and  _318
REMARK  133  A    between atoms: _318  and  _319
REMARK  134  A    between atoms: _318  and  _321
REMARK  135  A    between atoms: _321  and  _322
REMARK  136  A    between atoms: _325  and  _327
REMARK  137  A    between atoms: _327  and  _328
REMARK  138  A    between atoms: _327  and  _330
REMARK  139  A    between atoms: _330  and  _331
REMARK  140  A    between atoms: _333  and  _335
REMARK  141  A    between atoms: _335  and  _336
REMARK  142  A    between atoms: _335  and  _338
REMARK  143  A    between atoms: _338  and  _339
REMARK  144  A    between atoms: _344  and  _346
REMARK  145  A    between atoms: _346  and  _347
REMARK  146  A    between atoms: _346  and  _349
REMARK  147  A    between atoms: _349  and  _350
REMARK  148  A    between atoms: _353  and  _355
REMARK  149  A    between atoms: _355  and  _356
REMARK  150  A    between atoms: _355  and  _358
REMARK  151  A    between atoms: _358  and  _359
REMARK  152  A    between atoms: _359  and  _360
REMARK  153  A    between atoms: _363  and  _365
REMARK  154  A    between atoms: _365  and  _366
REMARK  155  A    between atoms: _365  and  _368
REMARK  156  A    between atoms: _368  and  _369
REMARK  157  A    between atoms: _372  and  _374
REMARK  158  A    between atoms: _374  and  _375
REMARK  159  A    between atoms: _374  and  _377
REMARK  160  A    between atoms: _377  and  _378
REMARK  161  A    between atoms: _381  and  _383
REMARK  162  A    between atoms: _383  and  _384
REMARK  163  A    between atoms: _383  and  _386
REMARK  164  A    between atoms: _386  and  _387
REMARK  165  A    between atoms: _390  and  _392
REMARK  166  A    between atoms: _392  and  _393
REMARK                            x       y       z     vdW  Elec       q    Type
REMARK                         _______ _______ _______ _____ _____    ______ ____
ROOT
ATOM      1  CB  PHE A   1      45.368 -49.456  11.854  0.00  0.00    +0.051 C 
ENDROOT
BRANCH   1   2
ATOM      2  CG  PHE A   1      46.254 -48.866  12.948  0.00  0.00    -0.020 A 
ATOM      3  CD2 PHE A   1      45.905 -47.707  13.625  0.00  0.00    -0.004 A 
ATOM      4  CE2 PHE A   1      46.720 -47.200  14.643  0.00  0.00    -0.000 A 
ATOM      5  CZ  PHE A   1      47.880 -47.864  15.022  0.00  0.00    -0.000 A 
ATOM      6  CE1 PHE A   1      48.226 -49.040  14.372  0.00  0.00    -0.000 A 
ATOM      7  CD1 PHE A   1      47.416 -49.528  13.338  0.00  0.00    -0.004 A 
ENDBRANCH   1   2
BRANCH   1   8
ATOM      8  CA  PHE A   1      44.849 -48.441  10.826  0.00  0.00    +0.137 C 
BRANCH   8   9
ATOM      9  N   PHE A   1      44.120 -49.137   9.763  0.00  0.00    -0.239 NA
ATOM     10  H   PHE A   1      44.537 -49.986   9.331  0.00  0.00    +0.142 HD
ENDBRANCH   8   9
BRANCH   8  11
ATOM     11  C   PHE A   1      45.976 -47.703  10.111  0.00  0.00    +0.224 C 
ATOM     12  O   PHE A   1      46.730 -48.322   9.371  0.00  0.00    -0.287 OA
ENDBRANCH   8  11
ENDBRANCH   1   8
TORSDOF 4
REMARK  Name = ../refined-set-2016/3uxk/3uxk_pocket.pdb
REMARK  166 active torsions:
REMARK  status: ('A' for Active; 'I' for Inactive)
REMARK    1  A    between atoms: _1  and  _3
REMARK    2  A    between atoms: _3  and  _4
REMARK    3  A    between atoms: _3  and  _6
REMARK    4  A    between atoms: _6  and  _7
REMARK    5  A    between atoms: _11  and  _12
REMARK    6  A    between atoms: _17  and  _19
REMARK    7  A    between atoms: _19  and  _20
REMARK    8  A    between atoms: _19  and  _22
REMARK    9  A    between atoms: _25  and  _27
REMARK   10  A    between atoms: _27  and  _28
REMARK   11  A    between atoms: _27  and  _30
REMARK   12  A    between atoms: _30  and  _31
REMARK   13  A    between atoms: _36  and  _38
REMARK   14  A    between atoms: _38  and  _39
REMARK   15  A    between atoms: _38  and  _41
REMARK   16  A    between atoms: _41  and  _42
REMARK   17  A    between atoms: _45  and  _47
REMARK   18  A    between atoms: _47  and  _48
REMARK   19  A    between atoms: _51  and  _53
REMARK   20  A    between atoms: _53  and  _54
REMARK   21  A    between atoms: _53  and  _56
REMARK   22  A    between atoms: _59  and  _61
REMARK   23  A    between atoms: _61  and  _62
REMARK   24  A    between atoms: _64  and  _66
REMARK   25  A    between atoms: _66  and  _67
REMARK   26  A    between atoms: _66  and  _69
REMARK   27  A    between atoms: _69  and  _70
REMARK   28  A    between atoms: _73  and  _75
REMARK   29  A    between atoms: _75  and  _76
REMARK   30  A    between atoms: _75  and  _78
REMARK   31  A    between atoms: _81  and  _83
REMARK   32  A    between atoms: _83  and  _84
REMARK   33  A    between atoms: _83  and  _86
REMARK   34  A    between atoms: _86  and  _87
REMARK   35  A    between atoms: _90  and  _92
REMARK   36  A    between atoms: _92  and  _93
REMARK   37  A    between atoms: _92  and  _95
REMARK   38  A    between atoms: _95  and  _96
REMARK   39  A    between atoms: _102  and  _104
REMARK   40  A    between atoms: _104  and  _105
REMARK   41  A    between atoms: _104  and  _107
REMARK   42  A    between atoms: _107  and  _108
REMARK   43  A    between atoms: _113  and  _114
REMARK   44  A    between atoms: _116  and  _118
REMARK   45  A    between atoms: _118  and  _119
REMARK   46  A    between atoms: _118  and  _121
REMARK   47  A    between atoms: _121  and  _122
REMARK   48  A    between atoms: _127  and  _128
REMARK   49  A    between atoms: _130  and  _132
REMARK   50  A    between atoms: _132  and  _133
REMARK   51  A    between atoms: _132  and  _135
REMARK   52  A    between atoms: _135  and  _136
REMARK   53  A    between atoms: _138  and  _140
REMARK   54  A    between atoms: _140  and  _141
REMARK   55  A    between atoms: _140  and  _143
REMARK   56  A    between atoms: _143  and  _144
REMARK   57  A    between atoms: _149  and  _151
REMARK   58  A    between atoms: _151  and  _152
REMARK   59  A    between atoms: _151  and  _154
REMARK   60  A    between atoms: _154  and  _155
REMARK   61  A    between atoms: _157  and  _159
REMARK   62  A    between atoms: _159  and  _160
REMARK   63  A    between atoms: _159  and  _162
REMARK   64  A    between atoms: _162  and  _163
REMARK   65  A    between atoms: _163  and  _164
REMARK   66  A    between atoms: _164  and  _165
REMARK   67  A    between atoms: _165  and  _166
REMARK   68  A    between atoms: _170  and  _172
REMARK   69  A    between atoms: _172  and  _173
REMARK   70  A    between atoms: _172  and  _175
REMARK   71  A    between atoms: _175  and  _176
REMARK   72  A    between atoms: _179  and  _181
REMARK   73  A    between atoms: _181  and  _182
REMARK   74  A    between atoms: _181  and  _184
REMARK   75  A    between atoms: _184  and  _185
REMARK   76  A    between atoms: _185  and  _186
REMARK   77  A    between atoms: _186  and  _187
REMARK   78  A    between atoms: _187  and  _188
REMARK   79  A    between atoms: _192  and  _194
REMARK   80  A    between atoms: _194  and  _195
REMARK   81  A    between atoms: _194  and  _197
REMARK   82  A    between atoms: _197  and  _198
REMARK   83  A    between atoms: _201  and  _203
REMARK   84  A    between atoms: _203  and  _204
REMARK   85  A    between atoms: _203  and  _206
REMARK   86  A    between atoms: _206  and  _207
REMARK   87  A    between atoms: _212  and  _213
REMARK   88  A    between atoms: _215  and  _217
REMARK   89  A    between atoms: _217  and  _218
REMARK   90  A    between atoms: _217  and  _220
REMARK   91  A    between atoms: _220  and  _221
REMARK   92  A    between atoms: _226  and  _228
REMARK   93  A    between atoms: _228  and  _229
REMARK   94  A    between atoms: _228  and  _231
REMARK   95  A    between atoms: _231  and  _232
REMARK   96  A    between atoms: _232  and  _233
REMARK   97  A    between atoms: _238  and  _240
REMARK   98  A    between atoms: _240  and  _241
REMARK   99  A    between atoms: _240  and  _243
REMARK  100  A    between atoms: _243  and  _244
REMARK  101  A    between atoms: _254  and  _256
REMARK  102  A    between atoms: _256  and  _257
REMARK  103  A    between atoms: _256  and  _259
REMARK  104  A    between atoms: _259  and  _260
REMARK  105  A    between atoms: _260  and  _261
REMARK  106  A    between atoms: _261  and  _262
REMARK  107  A    between atoms: _262  and  MG_396
REMARK  108  A    between atoms: _264  and  _266
REMARK  109  A    between atoms: _266  and  _267
REMARK  110  A    between atoms: _266  and  _269
REMARK  111  A    between atoms: _269  and  _270
REMARK  112  A    between atoms: _270  and  _271
REMARK  113  A    between atoms: _274  and  _276
REMARK  114  A    between atoms: _276  and  _277
REMARK  115  A    between atoms: _276  and  _279
REMARK  116  A    between atoms: _279  and  _280
REMARK  117  A    between atoms: _280  and  _281
REMARK  118  A    between atoms: _286  and  _288
REMARK  119  A    between atoms: _288  and  _289
REMARK  120  A    between atoms: _288  and  _291
REMARK  121  A    between atoms: _291  and  _292
REMARK  122  A    between atoms: _292  and  _293
REMARK  123  A    between atoms: _296  and  _298
REMARK  124  A    between atoms: _298  and  _299
REMARK  125  A    between atoms: _298  and  _301
REMARK  126  A    between atoms: _301  and  _302
REMARK  127  A    between atoms: _307  and  _309
REMARK  128  A    between atoms: _309  and  _310
REMARK  129  A    between atoms: _309  and  _312
REMARK  130  A    between atoms: _312  and  _313
REMARK  131  A    between atoms: _313  and  _314
REMARK  132  A    between atoms: _316  and  _318
REMARK  133  A    between atoms: _318  and  _319
REMARK  134  A    between atoms: _318  and  _321
REMARK  135  A    between atoms: _321  and  _322
REMARK  136  A    between atoms: _325  and  _327
REMARK  137  A    between atoms: _327  and  _328
REMARK  138  A    between atoms: _327  and  _330
REMARK  139  A    between atoms: _330  and  _331
REMARK  140  A    between atoms: _333  and  _335
REMARK  141  A    between atoms: _335  and  _336
REMARK  142  A    between atoms: _335  and  _338
REMARK  143  A    between atoms: _338  and  _339
REMARK  144  A    between atoms: _344  and  _346
REMARK  145  A    between atoms: _346  and  _347
REMARK  146  A    between atoms: _346  and  _349
REMARK  147  A    between atoms: _349  and  _350
REMARK  148  A    between atoms: _353  and  _355
REMARK  149  A    between atoms: _355  and  _356
REMARK  150  A    between atoms: _355  and  _358
REMARK  151  A    between atoms: _358  and  _359
REMARK  152  A    between atoms: _359  and  _360
REMARK  153  A    between atoms: _363  and  _365
REMARK  154  A    between atoms: _365  and  _366
REMARK  155  A    between atoms: _365  and  _368
REMARK  156  A    between atoms: _368  and  _369
REMARK  157  A    between atoms: _372  and  _374
REMARK  158  A    between atoms: _374  and  _375
REMARK  159  A    between atoms: _374  and  _377
REMARK  160  A    between atoms: _377  and  _378
REMARK  161  A    between atoms: _381  and  _383
REMARK  162  A    between atoms: _383  and  _384
REMARK  163  A    between atoms: _383  and  _386
REMARK  164  A    between atoms: _386  and  _387
REMARK  165  A    between atoms: _390  and  _392
REMARK  166  A    between atoms: _392  and  _393
REMARK                            x       y       z     vdW  Elec       q    Type
REMARK                         _______ _______ _______ _____ _____    ______ ____
ROOT
ATOM      1  CG  TYR A   1      50.791 -47.879  11.898  0.00  0.00    -0.020 A 
ATOM      2  CD2 TYR A   1      51.291 -48.523  12.937  0.00  0.00    -0.001 A 
ATOM      3  CE2 TYR A   1      51.291 -49.837  13.008  0.00  0.00    +0.036 A 
ATOM      4  CZ  TYR A   1      50.765 -50.552  12.073  0.00  0.00    +0.134 A 
ATOM      5  CE1 TYR A   1      50.194 -49.982  10.982  0.00  0.00    +0.036 A 
ATOM      6  CD1 TYR A   1      50.207 -48.617  10.899  0.00  0.00    -0.001 A 
ENDROOT
BRANCH   4   7
ATOM      7  OH  TYR A   1      50.873 -51.864  12.310  0.00  0.00    -0.506 OA
ATOM      8  HH  TYR A   1      51.398 -52.287  11.585  0.00  0.00    +0.292 HD
ENDBRANCH   4   7
BRANCH   1   9
ATOM      9  CB  TYR A   1      50.788 -46.406  11.904  0.00  0.00    +0.051 C 
BRANCH   9  10
ATOM     10  CA  TYR A   1      49.557 -45.808  12.586  0.00  0.00    +0.137 C 
BRANCH  10  11
ATOM     11  N   TYR A   1      48.388 -45.834  11.695  0.00  0.00    -0.239 NA
ATOM     12  H   TYR A   1      47.507 -46.245  12.066  0.00  0.00    +0.142 HD
ENDBRANCH  10  11
BRANCH  10  13
ATOM     13  C   TYR A   1      49.920 -44.474  13.172  0.00  0.00    +0.224 C 
ATOM     14  O   TYR A   1      50.013 -44.335  14.345  0.00  0.00    -0.287 OA
ENDBRANCH  10  13
ENDBRANCH   9  10
ENDBRANCH   1   9
TORSDOF 5
REMARK  Name = ../refined-set-2016/3uxk/3uxk_pocket.pdb
REMARK  166 active torsions:
REMARK  status: ('A' for Active; 'I' for Inactive)
REMARK    1  A    between atoms: _1  and  _3
REMARK    2  A    between atoms: _3  and  _4
REMARK    3  A    between atoms: _3  and  _6
REMARK    4  A    between atoms: _6  and  _7
REMARK    5  A    between atoms: _11  and  _12
REMARK    6  A    between atoms: _17  and  _19
REMARK    7  A    between atoms: _19  and  _20
REMARK    8  A    between atoms: _19  and  _22
REMARK    9  A    between atoms: _25  and  _27
REMARK   10  A    between atoms: _27  and  _28
REMARK   11  A    between atoms: _27  and  _30
REMARK   12  A    between atoms: _30  and  _31
REMARK   13  A    between atoms: _36  and  _38
REMARK   14  A    between atoms: _38  and  _39
REMARK   15  A    between atoms: _38  and  _41
REMARK   16  A    between atoms: _41  and  _42
REMARK   17  A    between atoms: _45  and  _47
REMARK   18  A    between atoms: _47  and  _48
REMARK   19  A    between atoms: _51  and  _53
REMARK   20  A    between atoms: _53  and  _54
REMARK   21  A    between atoms: _53  and  _56
REMARK   22  A    between atoms: _59  and  _61
REMARK   23  A    between atoms: _61  and  _62
REMARK   24  A    between atoms: _64  and  _66
REMARK   25  A    between atoms: _66  and  _67
REMARK   26  A    between atoms: _66  and  _69
REMARK   27  A    between atoms: _69  and  _70
REMARK   28  A    between atoms: _73  and  _75
REMARK   29  A    between atoms: _75  and  _76
REMARK   30  A    between atoms: _75  and  _78
REMARK   31  A    between atoms: _81  and  _83
REMARK   32  A    between atoms: _83  and  _84
REMARK   33  A    between atoms: _83  and  _86
REMARK   34  A    between atoms: _86  and  _87
REMARK   35  A    between atoms: _90  and  _92
REMARK   36  A    between atoms: _92  and  _93
REMARK   37  A    between atoms: _92  and  _95
REMARK   38  A    between atoms: _95  and  _96
REMARK   39  A    between atoms: _102  and  _104
REMARK   40  A    between atoms: _104  and  _105
REMARK   41  A    between atoms: _104  and  _107
REMARK   42  A    between atoms: _107  and  _108
REMARK   43  A    between atoms: _113  and  _114
REMARK   44  A    between atoms: _116  and  _118
REMARK   45  A    between atoms: _118  and  _119
REMARK   46  A    between atoms: _118  and  _121
REMARK   47  A    between atoms: _121  and  _122
REMARK   48  A    between atoms: _127  and  _128
REMARK   49  A    between atoms: _130  and  _132
REMARK   50  A    between atoms: _132  and  _133
REMARK   51  A    between atoms: _132  and  _135
REMARK   52  A    between atoms: _135  and  _136
REMARK   53  A    between atoms: _138  and  _140
REMARK   54  A    between atoms: _140  and  _141
REMARK   55  A    between atoms: _140  and  _143
REMARK   56  A    between atoms: _143  and  _144
REMARK   57  A    between atoms: _149  and  _151
REMARK   58  A    between atoms: _151  and  _152
REMARK   59  A    between atoms: _151  and  _154
REMARK   60  A    between atoms: _154  and  _155
REMARK   61  A    between atoms: _157  and  _159
REMARK   62  A    between atoms: _159  and  _160
REMARK   63  A    between atoms: _159  and  _162
REMARK   64  A    between atoms: _162  and  _163
REMARK   65  A    between atoms: _163  and  _164
REMARK   66  A    between atoms: _164  and  _165
REMARK   67  A    between atoms: _165  and  _166
REMARK   68  A    between atoms: _170  and  _172
REMARK   69  A    between atoms: _172  and  _173
REMARK   70  A    between atoms: _172  and  _175
REMARK   71  A    between atoms: _175  and  _176
REMARK   72  A    between atoms: _179  and  _181
REMARK   73  A    between atoms: _181  and  _182
REMARK   74  A    between atoms: _181  and  _184
REMARK   75  A    between atoms: _184  and  _185
REMARK   76  A    between atoms: _185  and  _186
REMARK   77  A    between atoms: _186  and  _187
REMARK   78  A    between atoms: _187  and  _188
REMARK   79  A    between atoms: _192  and  _194
REMARK   80  A    between atoms: _194  and  _195
REMARK   81  A    between atoms: _194  and  _197
REMARK   82  A    between atoms: _197  and  _198
REMARK   83  A    between atoms: _201  and  _203
REMARK   84  A    between atoms: _203  and  _204
REMARK   85  A    between atoms: _203  and  _206
REMARK   86  A    between atoms: _206  and  _207
REMARK   87  A    between atoms: _212  and  _213
REMARK   88  A    between atoms: _215  and  _217
REMARK   89  A    between atoms: _217  and  _218
REMARK   90  A    between atoms: _217  and  _220
REMARK   91  A    between atoms: _220  and  _221
REMARK   92  A    between atoms: _226  and  _228
REMARK   93  A    between atoms: _228  and  _229
REMARK   94  A    between atoms: _228  and  _231
REMARK   95  A    between atoms: _231  and  _232
REMARK   96  A    between atoms: _232  and  _233
REMARK   97  A    between atoms: _238  and  _240
REMARK   98  A    between atoms: _240  and  _241
REMARK   99  A    between atoms: _240  and  _243
REMARK  100  A    between atoms: _243  and  _244
REMARK  101  A    between atoms: _254  and  _256
REMARK  102  A    between atoms: _256  and  _257
REMARK  103  A    between atoms: _256  and  _259
REMARK  104  A    between atoms: _259  and  _260
REMARK  105  A    between atoms: _260  and  _261
REMARK  106  A    between atoms: _261  and  _262
REMARK  107  A    between atoms: _262  and  MG_396
REMARK  108  A    between atoms: _264  and  _266
REMARK  109  A    between atoms: _266  and  _267
REMARK  110  A    between atoms: _266  and  _269
REMARK  111  A    between atoms: _269  and  _270
REMARK  112  A    between atoms: _270  and  _271
REMARK  113  A    between atoms: _274  and  _276
REMARK  114  A    between atoms: _276  and  _277
REMARK  115  A    between atoms: _276  and  _279
REMARK  116  A    between atoms: _279  and  _280
REMARK  117  A    between atoms: _280  and  _281
REMARK  118  A    between atoms: _286  and  _288
REMARK  119  A    between atoms: _288  and  _289
REMARK  120  A    between atoms: _288  and  _291
REMARK  121  A    between atoms: _291  and  _292
REMARK  122  A    between atoms: _292  and  _293
REMARK  123  A    between atoms: _296  and  _298
REMARK  124  A    between atoms: _298  and  _299
REMARK  125  A    between atoms: _298  and  _301
REMARK  126  A    between atoms: _301  and  _302
REMARK  127  A    between atoms: _307  and  _309
REMARK  128  A    between atoms: _309  and  _310
REMARK  129  A    between atoms: _309  and  _312
REMARK  130  A    between atoms: _312  and  _313
REMARK  131  A    between atoms: _313  and  _314
REMARK  132  A    between atoms: _316  and  _318
REMARK  133  A    between atoms: _318  and  _319
REMARK  134  A    between atoms: _318  and  _321
REMARK  135  A    between atoms: _321  and  _322
REMARK  136  A    between atoms: _325  and  _327
REMARK  137  A    between atoms: _327  and  _328
REMARK  138  A    between atoms: _327  and  _330
REMARK  139  A    between atoms: _330  and  _331
REMARK  140  A    between atoms: _333  and  _335
REMARK  141  A    between atoms: _335  and  _336
REMARK  142  A    between atoms: _335  and  _338
REMARK  143  A    between atoms: _338  and  _339
REMARK  144  A    between atoms: _344  and  _346
REMARK  145  A    between atoms: _346  and  _347
REMARK  146  A    between atoms: _346  and  _349
REMARK  147  A    between atoms: _349  and  _350
REMARK  148  A    between atoms: _353  and  _355
REMARK  149  A    between atoms: _355  and  _356
REMARK  150  A    between atoms: _355  and  _358
REMARK  151  A    between atoms: _358  and  _359
REMARK  152  A    between atoms: _359  and  _360
REMARK  153  A    between atoms: _363  and  _365
REMARK  154  A    between atoms: _365  and  _366
REMARK  155  A    between atoms: _365  and  _368
REMARK  156  A    between atoms: _368  and  _369
REMARK  157  A    between atoms: _372  and  _374
REMARK  158  A    between atoms: _374  and  _375
REMARK  159  A    between atoms: _374  and  _377
REMARK  160  A    between atoms: _377  and  _378
REMARK  161  A    between atoms: _381  and  _383
REMARK  162  A    between atoms: _383  and  _384
REMARK  163  A    between atoms: _383  and  _386
REMARK  164  A    between atoms: _386  and  _387
REMARK  165  A    between atoms: _390  and  _392
REMARK  166  A    between atoms: _392  and  _393
REMARK                            x       y       z     vdW  Elec       q    Type
REMARK                         _______ _______ _______ _____ _____    ______ ____
ROOT
ATOM      1  CG  TYR A   1      48.365 -62.027  23.232  0.00  0.00    -0.020 A 
ATOM      2  CD2 TYR A   1      48.856 -60.719  23.178  0.00  0.00    -0.001 A 
ATOM      3  CE2 TYR A   1      49.387 -60.204  21.998  0.00  0.00    +0.036 A 
ATOM      4  CZ  TYR A   1      49.432 -60.988  20.855  0.00  0.00    +0.134 A 
ATOM      5  CE1 TYR A   1      48.953 -62.286  20.871  0.00  0.00    +0.036 A 
ATOM      6  CD1 TYR A   1      48.409 -62.798  22.051  0.00  0.00    -0.001 A 
ENDROOT
BRANCH   4   7
ATOM      7  OH  TYR A   1      49.967 -60.444  19.723  0.00  0.00    -0.506 OA
ATOM      8  HH  TYR A   1      50.750 -60.980  19.439  0.00  0.00    +0.292 HD
ENDBRANCH   4   7
BRANCH   1   9
ATOM      9  CB  TYR A   1      47.802 -62.607  24.539  0.00  0.00    +0.051 C 
BRANCH   9  10
ATOM     10  CA  TYR A   1      46.297 -62.423  24.762  0.00  0.00    +0.137 C 
BRANCH  10  11
ATOM     11  N   TYR A   1      45.484 -63.094  23.753  0.00  0.00    -0.239 NA
ATOM     12  H   TYR A   1      45.687 -62.931  22.746  0.00  0.00    +0.142 HD
ENDBRANCH  10  11
BRANCH  10  13
ATOM     13  C   TYR A   1      45.946 -60.959  24.786  0.00  0.00    +0.224 C 
ATOM     14  O   TYR A   1      45.606 -60.377  23.746  0.00  0.00    -0.287 OA
ENDBRANCH  10  13
ENDBRANCH   9  10
ENDBRANCH   1   9
TORSDOF 5
REMARK  Name = ../refined-set-2016/3uxk/3uxk_pocket.pdb
REMARK  166 active torsions:
REMARK  status: ('A' for Active; 'I' for Inactive)
REMARK    1  A    between atoms: _1  and  _3
REMARK    2  A    between atoms: _3  and  _4
REMARK    3  A    between atoms: _3  and  _6
REMARK    4  A    between atoms: _6  and  _7
REMARK    5  A    between atoms: _11  and  _12
REMARK    6  A    between atoms: _17  and  _19
REMARK    7  A    between atoms: _19  and  _20
REMARK    8  A    between atoms: _19  and  _22
REMARK    9  A    between atoms: _25  and  _27
REMARK   10  A    between atoms: _27  and  _28
REMARK   11  A    between atoms: _27  and  _30
REMARK   12  A    between atoms: _30  and  _31
REMARK   13  A    between atoms: _36  and  _38
REMARK   14  A    between atoms: _38  and  _39
REMARK   15  A    between atoms: _38  and  _41
REMARK   16  A    between atoms: _41  and  _42
REMARK   17  A    between atoms: _45  and  _47
REMARK   18  A    between atoms: _47  and  _48
REMARK   19  A    between atoms: _51  and  _53
REMARK   20  A    between atoms: _53  and  _54
REMARK   21  A    between atoms: _53  and  _56
REMARK   22  A    between atoms: _59  and  _61
REMARK   23  A    between atoms: _61  and  _62
REMARK   24  A    between atoms: _64  and  _66
REMARK   25  A    between atoms: _66  and  _67
REMARK   26  A    between atoms: _66  and  _69
REMARK   27  A    between atoms: _69  and  _70
REMARK   28  A    between atoms: _73  and  _75
REMARK   29  A    between atoms: _75  and  _76
REMARK   30  A    between atoms: _75  and  _78
REMARK   31  A    between atoms: _81  and  _83
REMARK   32  A    between atoms: _83  and  _84
REMARK   33  A    between atoms: _83  and  _86
REMARK   34  A    between atoms: _86  and  _87
REMARK   35  A    between atoms: _90  and  _92
REMARK   36  A    between atoms: _92  and  _93
REMARK   37  A    between atoms: _92  and  _95
REMARK   38  A    between atoms: _95  and  _96
REMARK   39  A    between atoms: _102  and  _104
REMARK   40  A    between atoms: _104  and  _105
REMARK   41  A    between atoms: _104  and  _107
REMARK   42  A    between atoms: _107  and  _108
REMARK   43  A    between atoms: _113  and  _114
REMARK   44  A    between atoms: _116  and  _118
REMARK   45  A    between atoms: _118  and  _119
REMARK   46  A    between atoms: _118  and  _121
REMARK   47  A    between atoms: _121  and  _122
REMARK   48  A    between atoms: _127  and  _128
REMARK   49  A    between atoms: _130  and  _132
REMARK   50  A    between atoms: _132  and  _133
REMARK   51  A    between atoms: _132  and  _135
REMARK   52  A    between atoms: _135  and  _136
REMARK   53  A    between atoms: _138  and  _140
REMARK   54  A    between atoms: _140  and  _141
REMARK   55  A    between atoms: _140  and  _143
REMARK   56  A    between atoms: _143  and  _144
REMARK   57  A    between atoms: _149  and  _151
REMARK   58  A    between atoms: _151  and  _152
REMARK   59  A    between atoms: _151  and  _154
REMARK   60  A    between atoms: _154  and  _155
REMARK   61  A    between atoms: _157  and  _159
REMARK   62  A    between atoms: _159  and  _160
REMARK   63  A    between atoms: _159  and  _162
REMARK   64  A    between atoms: _162  and  _163
REMARK   65  A    between atoms: _163  and  _164
REMARK   66  A    between atoms: _164  and  _165
REMARK   67  A    between atoms: _165  and  _166
REMARK   68  A    between atoms: _170  and  _172
REMARK   69  A    between atoms: _172  and  _173
REMARK   70  A    between atoms: _172  and  _175
REMARK   71  A    between atoms: _175  and  _176
REMARK   72  A    between atoms: _179  and  _181
REMARK   73  A    between atoms: _181  and  _182
REMARK   74  A    between atoms: _181  and  _184
REMARK   75  A    between atoms: _184  and  _185
REMARK   76  A    between atoms: _185  and  _186
REMARK   77  A    between atoms: _186  and  _187
REMARK   78  A    between atoms: _187  and  _188
REMARK   79  A    between atoms: _192  and  _194
REMARK   80  A    between atoms: _194  and  _195
REMARK   81  A    between atoms: _194  and  _197
REMARK   82  A    between atoms: _197  and  _198
REMARK   83  A    between atoms: _201  and  _203
REMARK   84  A    between atoms: _203  and  _204
REMARK   85  A    between atoms: _203  and  _206
REMARK   86  A    between atoms: _206  and  _207
REMARK   87  A    between atoms: _212  and  _213
REMARK   88  A    between atoms: _215  and  _217
REMARK   89  A    between atoms: _217  and  _218
REMARK   90  A    between atoms: _217  and  _220
REMARK   91  A    between atoms: _220  and  _221
REMARK   92  A    between atoms: _226  and  _228
REMARK   93  A    between atoms: _228  and  _229
REMARK   94  A    between atoms: _228  and  _231
REMARK   95  A    between atoms: _231  and  _232
REMARK   96  A    between atoms: _232  and  _233
REMARK   97  A    between atoms: _238  and  _240
REMARK   98  A    between atoms: _240  and  _241
REMARK   99  A    between atoms: _240  and  _243
REMARK  100  A    between atoms: _243  and  _244
REMARK  101  A    between atoms: _254  and  _256
REMARK  102  A    between atoms: _256  and  _257
REMARK  103  A    between atoms: _256  and  _259
REMARK  104  A    between atoms: _259  and  _260
REMARK  105  A    between atoms: _260  and  _261
REMARK  106  A    between atoms: _261  and  _262
REMARK  107  A    between atoms: _262  and  MG_396
REMARK  108  A    between atoms: _264  and  _266
REMARK  109  A    between atoms: _266  and  _267
REMARK  110  A    between atoms: _266  and  _269
REMARK  111  A    between atoms: _269  and  _270
REMARK  112  A    between atoms: _270  and  _271
REMARK  113  A    between atoms: _274  and  _276
REMARK  114  A    between atoms: _276  and  _277
REMARK  115  A    between atoms: _276  and  _279
REMARK  116  A    between atoms: _279  and  _280
REMARK  117  A    between atoms: _280  and  _281
REMARK  118  A    between atoms: _286  and  _288
REMARK  119  A    between atoms: _288  and  _289
REMARK  120  A    between atoms: _288  and  _291
REMARK  121  A    between atoms: _291  and  _292
REMARK  122  A    between atoms: _292  and  _293
REMARK  123  A    between atoms: _296  and  _298
REMARK  124  A    between atoms: _298  and  _299
REMARK  125  A    between atoms: _298  and  _301
REMARK  126  A    between atoms: _301  and  _302
REMARK  127  A    between atoms: _307  and  _309
REMARK  128  A    between atoms: _309  and  _310
REMARK  129  A    between atoms: _309  and  _312
REMARK  130  A    between atoms: _312  and  _313
REMARK  131  A    between atoms: _313  and  _314
REMARK  132  A    between atoms: _316  and  _318
REMARK  133  A    between atoms: _318  and  _319
REMARK  134  A    between atoms: _318  and  _321
REMARK  135  A    between atoms: _321  and  _322
REMARK  136  A    between atoms: _325  and  _327
REMARK  137  A    between atoms: _327  and  _328
REMARK  138  A    between atoms: _327  and  _330
REMARK  139  A    between atoms: _330  and  _331
REMARK  140  A    between atoms: _333  and  _335
REMARK  141  A    between atoms: _335  and  _336
REMARK  142  A    between atoms: _335  and  _338
REMARK  143  A    between atoms: _338  and  _339
REMARK  144  A    between atoms: _344  and  _346
REMARK  145  A    between atoms: _346  and  _347
REMARK  146  A    between atoms: _346  and  _349
REMARK  147  A    between atoms: _349  and  _350
REMARK  148  A    between atoms: _353  and  _355
REMARK  149  A    between atoms: _355  and  _356
REMARK  150  A    between atoms: _355  and  _358
REMARK  151  A    between atoms: _358  and  _359
REMARK  152  A    between atoms: _359  and  _360
REMARK  153  A    between atoms: _363  and  _365
REMARK  154  A    between atoms: _365  and  _366
REMARK  155  A    between atoms: _365  and  _368
REMARK  156  A    between atoms: _368  and  _369
REMARK  157  A    between atoms: _372  and  _374
REMARK  158  A    between atoms: _374  and  _375
REMARK  159  A    between atoms: _374  and  _377
REMARK  160  A    between atoms: _377  and  _378
REMARK  161  A    between atoms: _381  and  _383
REMARK  162  A    between atoms: _383  and  _384
REMARK  163  A    between atoms: _383  and  _386
REMARK  164  A    between atoms: _386  and  _387
REMARK  165  A    between atoms: _390  and  _392
REMARK  166  A    between atoms: _392  and  _393
REMARK                            x       y       z     vdW  Elec       q    Type
REMARK                         _______ _______ _______ _____ _____    ______ ____
ROOT
ATOM      1  CA  HIS A   2      49.698 -53.875  26.464  0.00  0.00    +0.155 C 
ENDROOT
BRANCH   1   3
ATOM      2  C   SER A   1      48.345 -55.273  24.969  0.00  0.00    +0.241 C 
ATOM      3  N   HIS A   2      49.439 -55.093  25.707  0.00  0.00    -0.297 N 
ATOM      4  H   HIS A   2      50.142 -55.858  25.745  0.00  0.00    +0.150 HD
ATOM      5  O   SER A   1      47.496 -54.388  24.752  0.00  0.00    -0.274 OA
BRANCH   2   6
ATOM      6  CA  SER A   1      48.164 -56.660  24.388  0.00  0.00    +0.174 C 
BRANCH   6   7
ATOM      7  N   SER A   1      46.944 -57.224  24.955  0.00  0.00    -0.236 NA
ATOM      8  H   SER A   1      46.020 -56.873  24.632  0.00  0.00    +0.142 HD
ENDBRANCH   6   7
BRANCH   6   9
ATOM      9  CB  SER A   1      48.010 -56.604  22.861  0.00  0.00    +0.163 C 
BRANCH   9  10
ATOM     10  OG  SER A   1      49.212 -56.319  22.201  0.00  0.00    -0.380 OA
ATOM     11  H   SER A   1      49.053 -56.296  21.224  0.00  0.00    +0.211 HD
ENDBRANCH   9  10
ENDBRANCH   6   9
ENDBRANCH   2   6
ENDBRANCH   1   3
BRANCH   1  12
ATOM     12  C   HIS A   2      50.794 -53.074  25.796  0.00  0.00    +0.241 C 
ATOM     13  N   SER A   3      51.456 -52.153  26.485  0.00  0.00    -0.296 N 
ATOM     14  H   SER A   3      51.235 -51.970  27.484  0.00  0.00    +0.150 HD
ATOM     15  O   HIS A   2      51.029 -53.264  24.621  0.00  0.00    -0.273 OA
BRANCH  13  16
ATOM     16  CA  SER A   3      52.507 -51.403  25.796  0.00  0.00    +0.166 C 
BRANCH  16  17
ATOM     17  CB  SER A   3      53.748 -51.159  26.657  0.00  0.00    +0.229 C 
ATOM     18  OG  SER A   3      53.992 -51.894  27.638  0.00  0.00    -0.286 OA
ENDBRANCH  16  17
BRANCH  16  19
ATOM     19  C   SER A   3      51.962 -50.138  25.101  0.00  0.00    +0.165 C 
BRANCH  19  20
ATOM     20  O   SER A   3      51.464 -49.167  26.022  0.00  0.00    -0.380 OA
ATOM     21  H   SER A   3      50.726 -49.563  26.550  0.00  0.00    +0.211 HD
ENDBRANCH  19  20
ENDBRANCH  16  19
ENDBRANCH  13  16
ENDBRANCH   1  12
BRANCH   1  22
ATOM     22  CB  HIS A   2      49.994 -54.218  27.927  0.00  0.00    +0.076 C 
BRANCH  22  23
ATOM     23  CG  HIS A   2      48.846 -54.953  28.617  0.00  0.00    +0.082 A 
ATOM     24  ND1 HIS A   2      49.020 -55.716  29.714  0.00  0.00    -0.227 NA
ATOM     25  CE1 HIS A   2      47.835 -56.248  30.099  0.00  0.00    +0.199 A 
ATOM     26  NE2 HIS A   2      46.896 -55.837  29.225  0.00  0.00    -0.221 NA
ATOM     27  CD2 HIS A   2      47.494 -55.054  28.282  0.00  0.00    +0.115 A 
ENDBRANCH  22  23
ENDBRANCH   1  22
TORSDOF 12
REMARK  Name = ../refined-set-2016/3uxk/3uxk_pocket.pdb
REMARK  166 active torsions:
REMARK  status: ('A' for Active; 'I' for Inactive)
REMARK    1  A    between atoms: _1  and  _3
REMARK    2  A    between atoms: _3  and  _4
REMARK    3  A    between atoms: _3  and  _6
REMARK    4  A    between atoms: _6  and  _7
REMARK    5  A    between atoms: _11  and  _12
REMARK    6  A    between atoms: _17  and  _19
REMARK    7  A    between atoms: _19  and  _20
REMARK    8  A    between atoms: _19  and  _22
REMARK    9  A    between atoms: _25  and  _27
REMARK   10  A    between atoms: _27  and  _28
REMARK   11  A    between atoms: _27  and  _30
REMARK   12  A    between atoms: _30  and  _31
REMARK   13  A    between atoms: _36  and  _38
REMARK   14  A    between atoms: _38  and  _39
REMARK   15  A    between atoms: _38  and  _41
REMARK   16  A    between atoms: _41  and  _42
REMARK   17  A    between atoms: _45  and  _47
REMARK   18  A    between atoms: _47  and  _48
REMARK   19  A    between atoms: _51  and  _53
REMARK   20  A    between atoms: _53  and  _54
REMARK   21  A    between atoms: _53  and  _56
REMARK   22  A    between atoms: _59  and  _61
REMARK   23  A    between atoms: _61  and  _62
REMARK   24  A    between atoms: _64  and  _66
REMARK   25  A    between atoms: _66  and  _67
REMARK   26  A    between atoms: _66  and  _69
REMARK   27  A    between atoms: _69  and  _70
REMARK   28  A    between atoms: _73  and  _75
REMARK   29  A    between atoms: _75  and  _76
REMARK   30  A    between atoms: _75  and  _78
REMARK   31  A    between atoms: _81  and  _83
REMARK   32  A    between atoms: _83  and  _84
REMARK   33  A    between atoms: _83  and  _86
REMARK   34  A    between atoms: _86  and  _87
REMARK   35  A    between atoms: _90  and  _92
REMARK   36  A    between atoms: _92  and  _93
REMARK   37  A    between atoms: _92  and  _95
REMARK   38  A    between atoms: _95  and  _96
REMARK   39  A    between atoms: _102  and  _104
REMARK   40  A    between atoms: _104  and  _105
REMARK   41  A    between atoms: _104  and  _107
REMARK   42  A    between atoms: _107  and  _108
REMARK   43  A    between atoms: _113  and  _114
REMARK   44  A    between atoms: _116  and  _118
REMARK   45  A    between atoms: _118  and  _119
REMARK   46  A    between atoms: _118  and  _121
REMARK   47  A    between atoms: _121  and  _122
REMARK   48  A    between atoms: _127  and  _128
REMARK   49  A    between atoms: _130  and  _132
REMARK   50  A    between atoms: _132  and  _133
REMARK   51  A    between atoms: _132  and  _135
REMARK   52  A    between atoms: _135  and  _136
REMARK   53  A    between atoms: _138  and  _140
REMARK   54  A    between atoms: _140  and  _141
REMARK   55  A    between atoms: _140  and  _143
REMARK   56  A    between atoms: _143  and  _144
REMARK   57  A    between atoms: _149  and  _151
REMARK   58  A    between atoms: _151  and  _152
REMARK   59  A    between atoms: _151  and  _154
REMARK   60  A    between atoms: _154  and  _155
REMARK   61  A    between atoms: _157  and  _159
REMARK   62  A    between atoms: _159  and  _160
REMARK   63  A    between atoms: _159  and  _162
REMARK   64  A    between atoms: _162  and  _163
REMARK   65  A    between atoms: _163  and  _164
REMARK   66  A    between atoms: _164  and  _165
REMARK   67  A    between atoms: _165  and  _166
REMARK   68  A    between atoms: _170  and  _172
REMARK   69  A    between atoms: _172  and  _173
REMARK   70  A    between atoms: _172  and  _175
REMARK   71  A    between atoms: _175  and  _176
REMARK   72  A    between atoms: _179  and  _181
REMARK   73  A    between atoms: _181  and  _182
REMARK   74  A    between atoms: _181  and  _184
REMARK   75  A    between atoms: _184  and  _185
REMARK   76  A    between atoms: _185  and  _186
REMARK   77  A    between atoms: _186  and  _187
REMARK   78  A    between atoms: _187  and  _188
REMARK   79  A    between atoms: _192  and  _194
REMARK   80  A    between atoms: _194  and  _195
REMARK   81  A    between atoms: _194  and  _197
REMARK   82  A    between atoms: _197  and  _198
REMARK   83  A    between atoms: _201  and  _203
REMARK   84  A    between atoms: _203  and  _204
REMARK   85  A    between atoms: _203  and  _206
REMARK   86  A    between atoms: _206  and  _207
REMARK   87  A    between atoms: _212  and  _213
REMARK   88  A    between atoms: _215  and  _217
REMARK   89  A    between atoms: _217  and  _218
REMARK   90  A    between atoms: _217  and  _220
REMARK   91  A    between atoms: _220  and  _221
REMARK   92  A    between atoms: _226  and  _228
REMARK   93  A    between atoms: _228  and  _229
REMARK   94  A    between atoms: _228  and  _231
REMARK   95  A    between atoms: _231  and  _232
REMARK   96  A    between atoms: _232  and  _233
REMARK   97  A    between atoms: _238  and  _240
REMARK   98  A    between atoms: _240  and  _241
REMARK   99  A    between atoms: _240  and  _243
REMARK  100  A    between atoms: _243  and  _244
REMARK  101  A    between atoms: _254  and  _256
REMARK  102  A    between atoms: _256  and  _257
REMARK  103  A    between atoms: _256  and  _259
REMARK  104  A    between atoms: _259  and  _260
REMARK  105  A    between atoms: _260  and  _261
REMARK  106  A    between atoms: _261  and  _262
REMARK  107  A    between atoms: _262  and  MG_396
REMARK  108  A    between atoms: _264  and  _266
REMARK  109  A    between atoms: _266  and  _267
REMARK  110  A    between atoms: _266  and  _269
REMARK  111  A    between atoms: _269  and  _270
REMARK  112  A    between atoms: _270  and  _271
REMARK  113  A    between atoms: _274  and  _276
REMARK  114  A    between atoms: _276  and  _277
REMARK  115  A    between atoms: _276  and  _279
REMARK  116  A    between atoms: _279  and  _280
REMARK  117  A    between atoms: _280  and  _281
REMARK  118  A    between atoms: _286  and  _288
REMARK  119  A    between atoms: _288  and  _289
REMARK  120  A    between atoms: _288  and  _291
REMARK  121  A    between atoms: _291  and  _292
REMARK  122  A    between atoms: _292  and  _293
REMARK  123  A    between atoms: _296  and  _298
REMARK  124  A    between atoms: _298  and  _299
REMARK  125  A    between atoms: _298  and  _301
REMARK  126  A    between atoms: _301  and  _302
REMARK  127  A    between atoms: _307  and  _309
REMARK  128  A    between atoms: _309  and  _310
REMARK  129  A    between atoms: _309  and  _312
REMARK  130  A    between atoms: _312  and  _313
REMARK  131  A    between atoms: _313  and  _314
REMARK  132  A    between atoms: _316  and  _318
REMARK  133  A    between atoms: _318  and  _319
REMARK  134  A    between atoms: _318  and  _321
REMARK  135  A    between atoms: _321  and  _322
REMARK  136  A    between atoms: _325  and  _327
REMARK  137  A    between atoms: _327  and  _328
REMARK  138  A    between atoms: _327  and  _330
REMARK  139  A    between atoms: _330  and  _331
REMARK  140  A    between atoms: _333  and  _335
REMARK  141  A    between atoms: _335  and  _336
REMARK  142  A    between atoms: _335  and  _338
REMARK  143  A    between atoms: _338  and  _339
REMARK  144  A    between atoms: _344  and  _346
REMARK  145  A    between atoms: _346  and  _347
REMARK  146  A    between atoms: _346  and  _349
REMARK  147  A    between atoms: _349  and  _350
REMARK  148  A    between atoms: _353  and  _355
REMARK  149  A    between atoms: _355  and  _356
REMARK  150  A    between atoms: _355  and  _358
REMARK  151  A    between atoms: _358  and  _359
REMARK  152  A    between atoms: _359  and  _360
REMARK  153  A    between atoms: _363  and  _365
REMARK  154  A    between atoms: _365  and  _366
REMARK  155  A    between atoms: _365  and  _368
REMARK  156  A    between atoms: _368  and  _369
REMARK  157  A    between atoms: _372  and  _374
REMARK  158  A    between atoms: _374  and  _375
REMARK  159  A    between atoms: _374  and  _377
REMARK  160  A    between atoms: _377  and  _378
REMARK  161  A    between atoms: _381  and  _383
REMARK  162  A    between atoms: _383  and  _384
REMARK  163  A    between atoms: _383  and  _386
REMARK  164  A    between atoms: _386  and  _387
REMARK  165  A    between atoms: _390  and  _392
REMARK  166  A    between atoms: _392  and  _393
REMARK                            x       y       z     vdW  Elec       q    Type
REMARK                         _______ _______ _______ _____ _____    ______ ____
ROOT
ATOM      1  CA  THR A   2      54.170 -56.044  26.835  0.00  0.00    +0.176 C 
ENDROOT
BRANCH   1   3
ATOM      2  C   LYS A   1      52.403 -57.567  26.264  0.00  0.00    +0.238 C 
ATOM      3  N   THR A   2      53.693 -57.361  26.500  0.00  0.00    -0.295 N 
ATOM      4  H   THR A   2      54.363 -58.155  26.443  0.00  0.00    +0.150 HD
ATOM      5  O   LYS A   1      51.549 -56.693  26.414  0.00  0.00    -0.274 OA
BRANCH   2   6
ATOM      6  CA  LYS A   1      52.024 -58.946  25.757  0.00  0.00    +0.145 C 
BRANCH   6   7
ATOM      7  N   LYS A   1      50.818 -59.392  26.446  0.00  0.00    -0.238 NA
ATOM      8  H   LYS A   1      49.941 -58.845  26.333  0.00  0.00    +0.142 HD
ENDBRANCH   6   7
BRANCH   6   9
ATOM      9  CB  LYS A   1      51.808 -58.886  24.235  0.00  0.00    +0.026 C 
BRANCH   9  10
ATOM     10  CG  LYS A   1      53.071 -58.556  23.433  0.00  0.00    -0.000 C 
BRANCH  10  11
ATOM     11  CD  LYS A   1      52.938 -58.928  21.948  0.00  0.00    -0.024 C 
BRANCH  11  12
ATOM     12  CE  LYS A   1      52.216 -57.844  21.130  0.00  0.00    -0.086 C 
BRANCH  12  13
ATOM     13  NZ  LYS A   1      51.999 -58.362  19.745  0.00  0.00    +0.380 N 
ATOM     14  HZ1 LYS A   1      51.418 -59.223  19.785  0.00  0.00    -0.089 HD
ATOM     15  HZ2 LYS A   1      52.918 -58.582  19.311  0.00  0.00    -0.089 HD
ATOM     16  HZ3 LYS A   1      51.511 -57.639  19.178  0.00  0.00    -0.089 HD
ENDBRANCH  12  13
ENDBRANCH  11  12
ENDBRANCH  10  11
ENDBRANCH   9  10
ENDBRANCH   6   9
ENDBRANCH   2   6
ENDBRANCH   1   3
BRANCH   1  17
ATOM     17  C   THR A   2      55.184 -55.619  25.772  0.00  0.00    +0.243 C 
ATOM     18  N   LYS A   3      55.309 -54.317  25.590  0.00  0.00    -0.298 N 
ATOM     19  H   LYS A   3      54.698 -53.659  26.114  0.00  0.00    +0.150 HD
ATOM     20  O   THR A   2      55.828 -56.460  25.106  0.00  0.00    -0.273 OA
BRANCH  18  21
ATOM     21  CA  LYS A   3      56.297 -53.802  24.660  0.00  0.00    +0.137 C 
BRANCH  21  22
ATOM     22  C   LYS A   3      57.524 -53.384  25.453  0.00  0.00    +0.227 C 
ATOM     23  O   LYS A   3      57.398 -52.729  26.484  0.00  0.00    -0.286 OA
ENDBRANCH  21  22
BRANCH  21  24
ATOM     24  CB  LYS A   3      55.708 -52.671  23.825  0.00  0.00    +0.028 C 
BRANCH  24  25
ATOM     25  CG  LYS A   3      54.691 -53.234  22.839  0.00  0.00    -0.000 C 
BRANCH  25  26
ATOM     26  CD  LYS A   3      53.996 -52.158  22.019  0.00  0.00    -0.024 C 
BRANCH  26  27
ATOM     27  CE  LYS A   3      52.860 -52.763  21.211  0.00  0.00    -0.086 C 
BRANCH  27  28
ATOM     28  NZ  LYS A   3      53.145 -54.142  20.721  0.00  0.00    +0.380 N 
ATOM     29  HZ1 LYS A   3      53.317 -54.768  21.533  0.00  0.00    -0.089 HD
ATOM     30  HZ2 LYS A   3      52.329 -54.492  20.179  0.00  0.00    -0.089 HD
ATOM     31  HZ3 LYS A   3      53.987 -54.125  20.110  0.00  0.00    -0.089 HD
ENDBRANCH  27  28
ENDBRANCH  26  27
ENDBRANCH  25  26
ENDBRANCH  24  25
ENDBRANCH  21  24
ENDBRANCH  18  21
ENDBRANCH   1  17
BRANCH   1  32
ATOM     32  CB  THR A   2      54.749 -55.985  28.284  0.00  0.00    +0.137 C 
ATOM     33  CG2 THR A   2      56.047 -56.776  28.422  0.00  0.00    +0.034 C 
BRANCH  32  34
ATOM     34  OG1 THR A   2      55.037 -54.631  28.619  0.00  0.00    -0.382 OA
ATOM     35  HG1 THR A   2      54.205 -54.096  28.571  0.00  0.00    +0.210 HD
ENDBRANCH  32  34
ENDBRANCH   1  32
TORSDOF 18
REMARK  Name = ../refined-set-2016/3uxk/3uxk_pocket.pdb
REMARK  166 active torsions:
REMARK  status: ('A' for Active; 'I' for Inactive)
REMARK    1  A    between atoms: _1  and  _3
REMARK    2  A    between atoms: _3  and  _4
REMARK    3  A    between atoms: _3  and  _6
REMARK    4  A    between atoms: _6  and  _7
REMARK    5  A    between atoms: _11  and  _12
REMARK    6  A    between atoms: _17  and  _19
REMARK    7  A    between atoms: _19  and  _20
REMARK    8  A    between atoms: _19  and  _22
REMARK    9  A    between atoms: _25  and  _27
REMARK   10  A    between atoms: _27  and  _28
REMARK   11  A    between atoms: _27  and  _30
REMARK   12  A    between atoms: _30  and  _31
REMARK   13  A    between atoms: _36  and  _38
REMARK   14  A    between atoms: _38  and  _39
REMARK   15  A    between atoms: _38  and  _41
REMARK   16  A    between atoms: _41  and  _42
REMARK   17  A    between atoms: _45  and  _47
REMARK   18  A    between atoms: _47  and  _48
REMARK   19  A    between atoms: _51  and  _53
REMARK   20  A    between atoms: _53  and  _54
REMARK   21  A    between atoms: _53  and  _56
REMARK   22  A    between atoms: _59  and  _61
REMARK   23  A    between atoms: _61  and  _62
REMARK   24  A    between atoms: _64  and  _66
REMARK   25  A    between atoms: _66  and  _67
REMARK   26  A    between atoms: _66  and  _69
REMARK   27  A    between atoms: _69  and  _70
REMARK   28  A    between atoms: _73  and  _75
REMARK   29  A    between atoms: _75  and  _76
REMARK   30  A    between atoms: _75  and  _78
REMARK   31  A    between atoms: _81  and  _83
REMARK   32  A    between atoms: _83  and  _84
REMARK   33  A    between atoms: _83  and  _86
REMARK   34  A    between atoms: _86  and  _87
REMARK   35  A    between atoms: _90  and  _92
REMARK   36  A    between atoms: _92  and  _93
REMARK   37  A    between atoms: _92  and  _95
REMARK   38  A    between atoms: _95  and  _96
REMARK   39  A    between atoms: _102  and  _104
REMARK   40  A    between atoms: _104  and  _105
REMARK   41  A    between atoms: _104  and  _107
REMARK   42  A    between atoms: _107  and  _108
REMARK   43  A    between atoms: _113  and  _114
REMARK   44  A    between atoms: _116  and  _118
REMARK   45  A    between atoms: _118  and  _119
REMARK   46  A    between atoms: _118  and  _121
REMARK   47  A    between atoms: _121  and  _122
REMARK   48  A    between atoms: _127  and  _128
REMARK   49  A    between atoms: _130  and  _132
REMARK   50  A    between atoms: _132  and  _133
REMARK   51  A    between atoms: _132  and  _135
REMARK   52  A    between atoms: _135  and  _136
REMARK   53  A    between atoms: _138  and  _140
REMARK   54  A    between atoms: _140  and  _141
REMARK   55  A    between atoms: _140  and  _143
REMARK   56  A    between atoms: _143  and  _144
REMARK   57  A    between atoms: _149  and  _151
REMARK   58  A    between atoms: _151  and  _152
REMARK   59  A    between atoms: _151  and  _154
REMARK   60  A    between atoms: _154  and  _155
REMARK   61  A    between atoms: _157  and  _159
REMARK   62  A    between atoms: _159  and  _160
REMARK   63  A    between atoms: _159  and  _162
REMARK   64  A    between atoms: _162  and  _163
REMARK   65  A    between atoms: _163  and  _164
REMARK   66  A    between atoms: _164  and  _165
REMARK   67  A    between atoms: _165  and  _166
REMARK   68  A    between atoms: _170  and  _172
REMARK   69  A    between atoms: _172  and  _173
REMARK   70  A    between atoms: _172  and  _175
REMARK   71  A    between atoms: _175  and  _176
REMARK   72  A    between atoms: _179  and  _181
REMARK   73  A    between atoms: _181  and  _182
REMARK   74  A    between atoms: _181  and  _184
REMARK   75  A    between atoms: _184  and  _185
REMARK   76  A    between atoms: _185  and  _186
REMARK   77  A    between atoms: _186  and  _187
REMARK   78  A    between atoms: _187  and  _188
REMARK   79  A    between atoms: _192  and  _194
REMARK   80  A    between atoms: _194  and  _195
REMARK   81  A    between atoms: _194  and  _197
REMARK   82  A    between atoms: _197  and  _198
REMARK   83  A    between atoms: _201  and  _203
REMARK   84  A    between atoms: _203  and  _204
REMARK   85  A    between atoms: _203  and  _206
REMARK   86  A    between atoms: _206  and  _207
REMARK   87  A    between atoms: _212  and  _213
REMARK   88  A    between atoms: _215  and  _217
REMARK   89  A    between atoms: _217  and  _218
REMARK   90  A    between atoms: _217  and  _220
REMARK   91  A    between atoms: _220  and  _221
REMARK   92  A    between atoms: _226  and  _228
REMARK   93  A    between atoms: _228  and  _229
REMARK   94  A    between atoms: _228  and  _231
REMARK   95  A    between atoms: _231  and  _232
REMARK   96  A    between atoms: _232  and  _233
REMARK   97  A    between atoms: _238  and  _240
REMARK   98  A    between atoms: _240  and  _241
REMARK   99  A    between atoms: _240  and  _243
REMARK  100  A    between atoms: _243  and  _244
REMARK  101  A    between atoms: _254  and  _256
REMARK  102  A    between atoms: _256  and  _257
REMARK  103  A    between atoms: _256  and  _259
REMARK  104  A    between atoms: _259  and  _260
REMARK  105  A    between atoms: _260  and  _261
REMARK  106  A    between atoms: _261  and  _262
REMARK  107  A    between atoms: _262  and  MG_396
REMARK  108  A    between atoms: _264  and  _266
REMARK  109  A    between atoms: _266  and  _267
REMARK  110  A    between atoms: _266  and  _269
REMARK  111  A    between atoms: _269  and  _270
REMARK  112  A    between atoms: _270  and  _271
REMARK  113  A    between atoms: _274  and  _276
REMARK  114  A    between atoms: _276  and  _277
REMARK  115  A    between atoms: _276  and  _279
REMARK  116  A    between atoms: _279  and  _280
REMARK  117  A    between atoms: _280  and  _281
REMARK  118  A    between atoms: _286  and  _288
REMARK  119  A    between atoms: _288  and  _289
REMARK  120  A    between atoms: _288  and  _291
REMARK  121  A    between atoms: _291  and  _292
REMARK  122  A    between atoms: _292  and  _293
REMARK  123  A    between atoms: _296  and  _298
REMARK  124  A    between atoms: _298  and  _299
REMARK  125  A    between atoms: _298  and  _301
REMARK  126  A    between atoms: _301  and  _302
REMARK  127  A    between atoms: _307  and  _309
REMARK  128  A    between atoms: _309  and  _310
REMARK  129  A    between atoms: _309  and  _312
REMARK  130  A    between atoms: _312  and  _313
REMARK  131  A    between atoms: _313  and  _314
REMARK  132  A    between atoms: _316  and  _318
REMARK  133  A    between atoms: _318  and  _319
REMARK  134  A    between atoms: _318  and  _321
REMARK  135  A    between atoms: _321  and  _322
REMARK  136  A    between atoms: _325  and  _327
REMARK  137  A    between atoms: _327  and  _328
REMARK  138  A    between atoms: _327  and  _330
REMARK  139  A    between atoms: _330  and  _331
REMARK  140  A    between atoms: _333  and  _335
REMARK  141  A    between atoms: _335  and  _336
REMARK  142  A    between atoms: _335  and  _338
REMARK  143  A    between atoms: _338  and  _339
REMARK  144  A    between atoms: _344  and  _346
REMARK  145  A    between atoms: _346  and  _347
REMARK  146  A    between atoms: _346  and  _349
REMARK  147  A    between atoms: _349  and  _350
REMARK  148  A    between atoms: _353  and  _355
REMARK  149  A    between atoms: _355  and  _356
REMARK  150  A    between atoms: _355  and  _358
REMARK  151  A    between atoms: _358  and  _359
REMARK  152  A    between atoms: _359  and  _360
REMARK  153  A    between atoms: _363  and  _365
REMARK  154  A    between atoms: _365  and  _366
REMARK  155  A    between atoms: _365  and  _368
REMARK  156  A    between atoms: _368  and  _369
REMARK  157  A    between atoms: _372  and  _374
REMARK  158  A    between atoms: _374  and  _375
REMARK  159  A    between atoms: _374  and  _377
REMARK  160  A    between atoms: _377  and  _378
REMARK  161  A    between atoms: _381  and  _383
REMARK  162  A    between atoms: _383  and  _384
REMARK  163  A    between atoms: _383  and  _386
REMARK  164  A    between atoms: _386  and  _387
REMARK  165  A    between atoms: _390  and  _392
REMARK  166  A    between atoms: _392  and  _393
REMARK                            x       y       z     vdW  Elec       q    Type
REMARK                         _______ _______ _______ _____ _____    ______ ____
ROOT
ATOM      1  C   TYR A   2      60.434 -53.867  19.748  0.00  0.00    +0.241 C 
ATOM      2  O   TYR A   2      61.122 -52.837  19.726  0.00  0.00    -0.273 OA
ATOM      3  N   ASN A   3      59.401 -54.064  18.922  0.00  0.00    -0.297 N 
ATOM      4  H   ASN A   3      58.840 -54.936  19.004  0.00  0.00    +0.150 HD
ENDROOT
BRANCH   3   5
ATOM      5  CA  ASN A   3      59.043 -53.064  17.896  0.00  0.00    +0.158 C 
BRANCH   5   6
ATOM      6  C   ASN A   3      60.261 -52.575  17.109  0.00  0.00    +0.241 C 
ATOM      7  O   ASN A   3      60.420 -51.364  16.925  0.00  0.00    -0.273 OA
ATOM      8  N   GLN A   4      61.123 -53.501  16.688  0.00  0.00    -0.298 N 
ATOM      9  H   GLN A   4      61.023 -54.470  17.051  0.00  0.00    +0.150 HD
BRANCH   8  10
ATOM     10  CA  GLN A   4      62.211 -53.220  15.733  0.00  0.00    +0.137 C 
BRANCH  10  11
ATOM     11  C   GLN A   4      63.340 -52.420  16.324  0.00  0.00    +0.227 C 
ATOM     12  O   GLN A   4      64.172 -51.924  15.577  0.00  0.00    -0.286 OA
ENDBRANCH  10  11
BRANCH  10  13
ATOM     13  CB  GLN A   4      61.685 -52.457  14.507  0.00  0.00    +0.037 C 
BRANCH  13  14
ATOM     14  CG  GLN A   4      60.543 -53.120  13.766  0.00  0.00    +0.087 C 
BRANCH  14  15
ATOM     15  CD  GLN A   4      60.155 -52.300  12.559  0.00  0.00    +0.219 C 
ATOM     16  NE2 GLN A   4      58.931 -51.791  12.557  0.00  0.00    -0.329 N 
ATOM     17 HE21 GLN A   4      58.281 -51.997  13.342  0.00  0.00    +0.145 HD
ATOM     18 HE22 GLN A   4      58.621 -51.185  11.770  0.00  0.00    +0.145 HD
ATOM     19  OE1 GLN A   4      60.971 -52.086  11.648  0.00  0.00    -0.275 OA
ENDBRANCH  14  15
ENDBRANCH  13  14
ENDBRANCH  10  13
ENDBRANCH   8  10
ENDBRANCH   5   6
BRANCH   5  20
ATOM     20  CB  ASN A   3      58.317 -51.862  18.533  0.00  0.00    +0.114 C 
BRANCH  20  21
ATOM     21  CG  ASN A   3      56.919 -52.222  19.011  0.00  0.00    +0.222 C 
ATOM     22  OD1 ASN A   3      56.700 -52.359  20.213  0.00  0.00    -0.275 OA
ATOM     23  ND2 ASN A   3      55.988 -52.457  18.070  0.00  0.00    -0.329 N 
ATOM     24 HD21 ASN A   3      55.035 -52.769  18.347  0.00  0.00    +0.145 HD
ATOM     25 HD22 ASN A   3      56.220 -52.327  17.065  0.00  0.00    +0.145 HD
ENDBRANCH  20  21
ENDBRANCH   5  20
ENDBRANCH   3   5
BRANCH   1  26
ATOM     26  CA  TYR A   2      60.739 -54.995  20.765  0.00  0.00    +0.153 C 
BRANCH  26  29
ATOM     27  C   ASP A   1      58.677 -55.885  21.702  0.00  0.00    +0.239 C 
ATOM     28  O   ASP A   1      58.551 -54.908  22.436  0.00  0.00    -0.274 OA
ATOM     29  N   TYR A   2      59.708 -56.025  20.875  0.00  0.00    -0.297 N 
ATOM     30  H   TYR A   2      59.783 -56.885  20.295  0.00  0.00    +0.150 HD
BRANCH  27  31
ATOM     31  CA  ASP A   1      57.635 -57.013  21.704  0.00  0.00    +0.156 C 
BRANCH  31  32
ATOM     32  N   ASP A   1      57.552 -57.624  23.018  0.00  0.00    -0.238 NA
ATOM     33  H   ASP A   1      57.434 -57.013  23.851  0.00  0.00    +0.142 HD
ENDBRANCH  31  32
BRANCH  31  34
ATOM     34  CB  ASP A   1      56.228 -56.513  21.305  0.00  0.00    +0.140 C 
BRANCH  34  35
ATOM     35  CG  ASP A   1      56.162 -55.980  19.873  0.00  0.00    +0.367 C 
ATOM     36  OD2 ASP A   1      55.014 -55.731  19.403  0.00  0.00    -0.246 OA
ATOM     37  OD1 ASP A   1      57.241 -55.792  19.228  0.00  0.00    -0.246 OA
ENDBRANCH  34  35
ENDBRANCH  31  34
ENDBRANCH  27  31
ENDBRANCH  26  29
BRANCH  26  38
ATOM     38  CB  TYR A   2      62.117 -55.622  20.503  0.00  0.00    +0.055 C 
BRANCH  38  39
ATOM     39  CG  TYR A   2      62.843 -55.973  21.791  0.00  0.00    -0.020 A 
ATOM     40  CD2 TYR A   2      63.257 -54.975  22.679  0.00  0.00    -0.001 A 
ATOM     41  CE2 TYR A   2      63.934 -55.281  23.858  0.00  0.00    +0.036 A 
ATOM     42  CZ  TYR A   2      64.178 -56.621  24.172  0.00  0.00    +0.134 A 
ATOM     43  CE1 TYR A   2      63.778 -57.624  23.300  0.00  0.00    +0.036 A 
ATOM     44  CD1 TYR A   2      63.113 -57.297  22.119  0.00  0.00    -0.001 A 
BRANCH  42  45
ATOM     45  OH  TYR A   2      64.816 -56.968  25.357  0.00  0.00    -0.506 OA
ATOM     46  HH  TYR A   2      65.036 -56.147  25.865  0.00  0.00    +0.292 HD
ENDBRANCH  42  45
ENDBRANCH  38  39
ENDBRANCH  26  38
ENDBRANCH   1  26
TORSDOF 18
REMARK  Name = ../refined-set-2016/3uxk/3uxk_pocket.pdb
REMARK  166 active torsions:
REMARK  status: ('A' for Active; 'I' for Inactive)
REMARK    1  A    between atoms: _1  and  _3
REMARK    2  A    between atoms: _3  and  _4
REMARK    3  A    between atoms: _3  and  _6
REMARK    4  A    between atoms: _6  and  _7
REMARK    5  A    between atoms: _11  and  _12
REMARK    6  A    between atoms: _17  and  _19
REMARK    7  A    between atoms: _19  and  _20
REMARK    8  A    between atoms: _19  and  _22
REMARK    9  A    between atoms: _25  and  _27
REMARK   10  A    between atoms: _27  and  _28
REMARK   11  A    between atoms: _27  and  _30
REMARK   12  A    between atoms: _30  and  _31
REMARK   13  A    between atoms: _36  and  _38
REMARK   14  A    between atoms: _38  and  _39
REMARK   15  A    between atoms: _38  and  _41
REMARK   16  A    between atoms: _41  and  _42
REMARK   17  A    between atoms: _45  and  _47
REMARK   18  A    between atoms: _47  and  _48
REMARK   19  A    between atoms: _51  and  _53
REMARK   20  A    between atoms: _53  and  _54
REMARK   21  A    between atoms: _53  and  _56
REMARK   22  A    between atoms: _59  and  _61
REMARK   23  A    between atoms: _61  and  _62
REMARK   24  A    between atoms: _64  and  _66
REMARK   25  A    between atoms: _66  and  _67
REMARK   26  A    between atoms: _66  and  _69
REMARK   27  A    between atoms: _69  and  _70
REMARK   28  A    between atoms: _73  and  _75
REMARK   29  A    between atoms: _75  and  _76
REMARK   30  A    between atoms: _75  and  _78
REMARK   31  A    between atoms: _81  and  _83
REMARK   32  A    between atoms: _83  and  _84
REMARK   33  A    between atoms: _83  and  _86
REMARK   34  A    between atoms: _86  and  _87
REMARK   35  A    between atoms: _90  and  _92
REMARK   36  A    between atoms: _92  and  _93
REMARK   37  A    between atoms: _92  and  _95
REMARK   38  A    between atoms: _95  and  _96
REMARK   39  A    between atoms: _102  and  _104
REMARK   40  A    between atoms: _104  and  _105
REMARK   41  A    between atoms: _104  and  _107
REMARK   42  A    between atoms: _107  and  _108
REMARK   43  A    between atoms: _113  and  _114
REMARK   44  A    between atoms: _116  and  _118
REMARK   45  A    between atoms: _118  and  _119
REMARK   46  A    between atoms: _118  and  _121
REMARK   47  A    between atoms: _121  and  _122
REMARK   48  A    between atoms: _127  and  _128
REMARK   49  A    between atoms: _130  and  _132
REMARK   50  A    between atoms: _132  and  _133
REMARK   51  A    between atoms: _132  and  _135
REMARK   52  A    between atoms: _135  and  _136
REMARK   53  A    between atoms: _138  and  _140
REMARK   54  A    between atoms: _140  and  _141
REMARK   55  A    between atoms: _140  and  _143
REMARK   56  A    between atoms: _143  and  _144
REMARK   57  A    between atoms: _149  and  _151
REMARK   58  A    between atoms: _151  and  _152
REMARK   59  A    between atoms: _151  and  _154
REMARK   60  A    between atoms: _154  and  _155
REMARK   61  A    between atoms: _157  and  _159
REMARK   62  A    between atoms: _159  and  _160
REMARK   63  A    between atoms: _159  and  _162
REMARK   64  A    between atoms: _162  and  _163
REMARK   65  A    between atoms: _163  and  _164
REMARK   66  A    between atoms: _164  and  _165
REMARK   67  A    between atoms: _165  and  _166
REMARK   68  A    between atoms: _170  and  _172
REMARK   69  A    between atoms: _172  and  _173
REMARK   70  A    between atoms: _172  and  _175
REMARK   71  A    between atoms: _175  and  _176
REMARK   72  A    between atoms: _179  and  _181
REMARK   73  A    between atoms: _181  and  _182
REMARK   74  A    between atoms: _181  and  _184
REMARK   75  A    between atoms: _184  and  _185
REMARK   76  A    between atoms: _185  and  _186
REMARK   77  A    between atoms: _186  and  _187
REMARK   78  A    between atoms: _187  and  _188
REMARK   79  A    between atoms: _192  and  _194
REMARK   80  A    between atoms: _194  and  _195
REMARK   81  A    between atoms: _194  and  _197
REMARK   82  A    between atoms: _197  and  _198
REMARK   83  A    between atoms: _201  and  _203
REMARK   84  A    between atoms: _203  and  _204
REMARK   85  A    between atoms: _203  and  _206
REMARK   86  A    between atoms: _206  and  _207
REMARK   87  A    between atoms: _212  and  _213
REMARK   88  A    between atoms: _215  and  _217
REMARK   89  A    between atoms: _217  and  _218
REMARK   90  A    between atoms: _217  and  _220
REMARK   91  A    between atoms: _220  and  _221
REMARK   92  A    between atoms: _226  and  _228
REMARK   93  A    between atoms: _228  and  _229
REMARK   94  A    between atoms: _228  and  _231
REMARK   95  A    between atoms: _231  and  _232
REMARK   96  A    between atoms: _232  and  _233
REMARK   97  A    between atoms: _238  and  _240
REMARK   98  A    between atoms: _240  and  _241
REMARK   99  A    between atoms: _240  and  _243
REMARK  100  A    between atoms: _243  and  _244
REMARK  101  A    between atoms: _254  and  _256
REMARK  102  A    between atoms: _256  and  _257
REMARK  103  A    between atoms: _256  and  _259
REMARK  104  A    between atoms: _259  and  _260
REMARK  105  A    between atoms: _260  and  _261
REMARK  106  A    between atoms: _261  and  _262
REMARK  107  A    between atoms: _262  and  MG_396
REMARK  108  A    between atoms: _264  and  _266
REMARK  109  A    between atoms: _266  and  _267
REMARK  110  A    between atoms: _266  and  _269
REMARK  111  A    between atoms: _269  and  _270
REMARK  112  A    between atoms: _270  and  _271
REMARK  113  A    between atoms: _274  and  _276
REMARK  114  A    between atoms: _276  and  _277
REMARK  115  A    between atoms: _276  and  _279
REMARK  116  A    between atoms: _279  and  _280
REMARK  117  A    between atoms: _280  and  _281
REMARK  118  A    between atoms: _286  and  _288
REMARK  119  A    between atoms: _288  and  _289
REMARK  120  A    between atoms: _288  and  _291
REMARK  121  A    between atoms: _291  and  _292
REMARK  122  A    between atoms: _292  and  _293
REMARK  123  A    between atoms: _296  and  _298
REMARK  124  A    between atoms: _298  and  _299
REMARK  125  A    between atoms: _298  and  _301
REMARK  126  A    between atoms: _301  and  _302
REMARK  127  A    between atoms: _307  and  _309
REMARK  128  A    between atoms: _309  and  _310
REMARK  129  A    between atoms: _309  and  _312
REMARK  130  A    between atoms: _312  and  _313
REMARK  131  A    between atoms: _313  and  _314
REMARK  132  A    between atoms: _316  and  _318
REMARK  133  A    between atoms: _318  and  _319
REMARK  134  A    between atoms: _318  and  _321
REMARK  135  A    between atoms: _321  and  _322
REMARK  136  A    between atoms: _325  and  _327
REMARK  137  A    between atoms: _327  and  _328
REMARK  138  A    between atoms: _327  and  _330
REMARK  139  A    between atoms: _330  and  _331
REMARK  140  A    between atoms: _333  and  _335
REMARK  141  A    between atoms: _335  and  _336
REMARK  142  A    between atoms: _335  and  _338
REMARK  143  A    between atoms: _338  and  _339
REMARK  144  A    between atoms: _344  and  _346
REMARK  145  A    between atoms: _346  and  _347
REMARK  146  A    between atoms: _346  and  _349
REMARK  147  A    between atoms: _349  and  _350
REMARK  148  A    between atoms: _353  and  _355
REMARK  149  A    between atoms: _355  and  _356
REMARK  150  A    between atoms: _355  and  _358
REMARK  151  A    between atoms: _358  and  _359
REMARK  152  A    between atoms: _359  and  _360
REMARK  153  A    between atoms: _363  and  _365
REMARK  154  A    between atoms: _365  and  _366
REMARK  155  A    between atoms: _365  and  _368
REMARK  156  A    between atoms: _368  and  _369
REMARK  157  A    between atoms: _372  and  _374
REMARK  158  A    between atoms: _374  and  _375
REMARK  159  A    between atoms: _374  and  _377
REMARK  160  A    between atoms: _377  and  _378
REMARK  161  A    between atoms: _381  and  _383
REMARK  162  A    between atoms: _383  and  _384
REMARK  163  A    between atoms: _383  and  _386
REMARK  164  A    between atoms: _386  and  _387
REMARK  165  A    between atoms: _390  and  _392
REMARK  166  A    between atoms: _392  and  _393
REMARK                            x       y       z     vdW  Elec       q    Type
REMARK                         _______ _______ _______ _____ _____    ______ ____
ROOT
ATOM      1  CG  TRP A   1      56.055 -64.285  20.958  0.00  0.00    -0.002 A 
ATOM      2  CD1 TRP A   1      56.237 -62.899  20.884  0.00  0.00    +0.068 A 
ATOM      3  NE1 TRP A   1      55.057 -62.263  20.569  0.00  0.00    -0.352 N 
ATOM      4  HE1 TRP A   1      54.946 -61.233  20.474  0.00  0.00    +0.166 HD
ATOM      5  CE2 TRP A   1      54.061 -63.164  20.400  0.00  0.00    +0.056 A 
ATOM      6  CZ2 TRP A   1      52.713 -62.980  20.104  0.00  0.00    +0.017 A 
ATOM      7  CH2 TRP A   1      51.920 -64.131  20.015  0.00  0.00    +0.001 A 
ATOM      8  CZ3 TRP A   1      52.449 -65.415  20.228  0.00  0.00    +0.000 A 
ATOM      9  CE3 TRP A   1      53.805 -65.606  20.548  0.00  0.00    +0.001 A 
ATOM     10  CD2 TRP A   1      54.626 -64.493  20.647  0.00  0.00    +0.013 A 
ENDROOT
BRANCH   1  11
ATOM     11  CB  TRP A   1      57.098 -65.357  21.187  0.00  0.00    +0.053 C 
BRANCH  11  12
ATOM     12  CA  TRP A   1      58.048 -65.191  22.371  0.00  0.00    +0.137 C 
BRANCH  12  13
ATOM     13  N   TRP A   1      57.376 -65.448  23.625  0.00  0.00    -0.239 NA
ATOM     14  H   TRP A   1      57.124 -64.651  24.244  0.00  0.00    +0.142 HD
ENDBRANCH  12  13
BRANCH  12  15
ATOM     15  C   TRP A   1      58.712 -63.836  22.378  0.00  0.00    +0.224 C 
ATOM     16  O   TRP A   1      58.454 -63.020  23.277  0.00  0.00    -0.287 OA
ENDBRANCH  12  15
ENDBRANCH  11  12
ENDBRANCH   1  11
TORSDOF 4
REMARK  Name = ../refined-set-2016/3uxk/3uxk_pocket.pdb
REMARK  166 active torsions:
REMARK  status: ('A' for Active; 'I' for Inactive)
REMARK    1  A    between atoms: _1  and  _3
REMARK    2  A    between atoms: _3  and  _4
REMARK    3  A    between atoms: _3  and  _6
REMARK    4  A    between atoms: _6  and  _7
REMARK    5  A    between atoms: _11  and  _12
REMARK    6  A    between atoms: _17  and  _19
REMARK    7  A    between atoms: _19  and  _20
REMARK    8  A    between atoms: _19  and  _22
REMARK    9  A    between atoms: _25  and  _27
REMARK   10  A    between atoms: _27  and  _28
REMARK   11  A    between atoms: _27  and  _30
REMARK   12  A    between atoms: _30  and  _31
REMARK   13  A    between atoms: _36  and  _38
REMARK   14  A    between atoms: _38  and  _39
REMARK   15  A    between atoms: _38  and  _41
REMARK   16  A    between atoms: _41  and  _42
REMARK   17  A    between atoms: _45  and  _47
REMARK   18  A    between atoms: _47  and  _48
REMARK   19  A    between atoms: _51  and  _53
REMARK   20  A    between atoms: _53  and  _54
REMARK   21  A    between atoms: _53  and  _56
REMARK   22  A    between atoms: _59  and  _61
REMARK   23  A    between atoms: _61  and  _62
REMARK   24  A    between atoms: _64  and  _66
REMARK   25  A    between atoms: _66  and  _67
REMARK   26  A    between atoms: _66  and  _69
REMARK   27  A    between atoms: _69  and  _70
REMARK   28  A    between atoms: _73  and  _75
REMARK   29  A    between atoms: _75  and  _76
REMARK   30  A    between atoms: _75  and  _78
REMARK   31  A    between atoms: _81  and  _83
REMARK   32  A    between atoms: _83  and  _84
REMARK   33  A    between atoms: _83  and  _86
REMARK   34  A    between atoms: _86  and  _87
REMARK   35  A    between atoms: _90  and  _92
REMARK   36  A    between atoms: _92  and  _93
REMARK   37  A    between atoms: _92  and  _95
REMARK   38  A    between atoms: _95  and  _96
REMARK   39  A    between atoms: _102  and  _104
REMARK   40  A    between atoms: _104  and  _105
REMARK   41  A    between atoms: _104  and  _107
REMARK   42  A    between atoms: _107  and  _108
REMARK   43  A    between atoms: _113  and  _114
REMARK   44  A    between atoms: _116  and  _118
REMARK   45  A    between atoms: _118  and  _119
REMARK   46  A    between atoms: _118  and  _121
REMARK   47  A    between atoms: _121  and  _122
REMARK   48  A    between atoms: _127  and  _128
REMARK   49  A    between atoms: _130  and  _132
REMARK   50  A    between atoms: _132  and  _133
REMARK   51  A    between atoms: _132  and  _135
REMARK   52  A    between atoms: _135  and  _136
REMARK   53  A    between atoms: _138  and  _140
REMARK   54  A    between atoms: _140  and  _141
REMARK   55  A    between atoms: _140  and  _143
REMARK   56  A    between atoms: _143  and  _144
REMARK   57  A    between atoms: _149  and  _151
REMARK   58  A    between atoms: _151  and  _152
REMARK   59  A    between atoms: _151  and  _154
REMARK   60  A    between atoms: _154  and  _155
REMARK   61  A    between atoms: _157  and  _159
REMARK   62  A    between atoms: _159  and  _160
REMARK   63  A    between atoms: _159  and  _162
REMARK   64  A    between atoms: _162  and  _163
REMARK   65  A    between atoms: _163  and  _164
REMARK   66  A    between atoms: _164  and  _165
REMARK   67  A    between atoms: _165  and  _166
REMARK   68  A    between atoms: _170  and  _172
REMARK   69  A    between atoms: _172  and  _173
REMARK   70  A    between atoms: _172  and  _175
REMARK   71  A    between atoms: _175  and  _176
REMARK   72  A    between atoms: _179  and  _181
REMARK   73  A    between atoms: _181  and  _182
REMARK   74  A    between atoms: _181  and  _184
REMARK   75  A    between atoms: _184  and  _185
REMARK   76  A    between atoms: _185  and  _186
REMARK   77  A    between atoms: _186  and  _187
REMARK   78  A    between atoms: _187  and  _188
REMARK   79  A    between atoms: _192  and  _194
REMARK   80  A    between atoms: _194  and  _195
REMARK   81  A    between atoms: _194  and  _197
REMARK   82  A    between atoms: _197  and  _198
REMARK   83  A    between atoms: _201  and  _203
REMARK   84  A    between atoms: _203  and  _204
REMARK   85  A    between atoms: _203  and  _206
REMARK   86  A    between atoms: _206  and  _207
REMARK   87  A    between atoms: _212  and  _213
REMARK   88  A    between atoms: _215  and  _217
REMARK   89  A    between atoms: _217  and  _218
REMARK   90  A    between atoms: _217  and  _220
REMARK   91  A    between atoms: _220  and  _221
REMARK   92  A    between atoms: _226  and  _228
REMARK   93  A    between atoms: _228  and  _229
REMARK   94  A    between atoms: _228  and  _231
REMARK   95  A    between atoms: _231  and  _232
REMARK   96  A    between atoms: _232  and  _233
REMARK   97  A    between atoms: _238  and  _240
REMARK   98  A    between atoms: _240  and  _241
REMARK   99  A    between atoms: _240  and  _243
REMARK  100  A    between atoms: _243  and  _244
REMARK  101  A    between atoms: _254  and  _256
REMARK  102  A    between atoms: _256  and  _257
REMARK  103  A    between atoms: _256  and  _259
REMARK  104  A    between atoms: _259  and  _260
REMARK  105  A    between atoms: _260  and  _261
REMARK  106  A    between atoms: _261  and  _262
REMARK  107  A    between atoms: _262  and  MG_396
REMARK  108  A    between atoms: _264  and  _266
REMARK  109  A    between atoms: _266  and  _267
REMARK  110  A    between atoms: _266  and  _269
REMARK  111  A    between atoms: _269  and  _270
REMARK  112  A    between atoms: _270  and  _271
REMARK  113  A    between atoms: _274  and  _276
REMARK  114  A    between atoms: _276  and  _277
REMARK  115  A    between atoms: _276  and  _279
REMARK  116  A    between atoms: _279  and  _280
REMARK  117  A    between atoms: _280  and  _281
REMARK  118  A    between atoms: _286  and  _288
REMARK  119  A    between atoms: _288  and  _289
REMARK  120  A    between atoms: _288  and  _291
REMARK  121  A    between atoms: _291  and  _292
REMARK  122  A    between atoms: _292  and  _293
REMARK  123  A    between atoms: _296  and  _298
REMARK  124  A    between atoms: _298  and  _299
REMARK  125  A    between atoms: _298  and  _301
REMARK  126  A    between atoms: _301  and  _302
REMARK  127  A    between atoms: _307  and  _309
REMARK  128  A    between atoms: _309  and  _310
REMARK  129  A    between atoms: _309  and  _312
REMARK  130  A    between atoms: _312  and  _313
REMARK  131  A    between atoms: _313  and  _314
REMARK  132  A    between atoms: _316  and  _318
REMARK  133  A    between atoms: _318  and  _319
REMARK  134  A    between atoms: _318  and  _321
REMARK  135  A    between atoms: _321  and  _322
REMARK  136  A    between atoms: _325  and  _327
REMARK  137  A    between atoms: _327  and  _328
REMARK  138  A    between atoms: _327  and  _330
REMARK  139  A    between atoms: _330  and  _331
REMARK  140  A    between atoms: _333  and  _335
REMARK  141  A    between atoms: _335  and  _336
REMARK  142  A    between atoms: _335  and  _338
REMARK  143  A    between atoms: _338  and  _339
REMARK  144  A    between atoms: _344  and  _346
REMARK  145  A    between atoms: _346  and  _347
REMARK  146  A    between atoms: _346  and  _349
REMARK  147  A    between atoms: _349  and  _350
REMARK  148  A    between atoms: _353  and  _355
REMARK  149  A    between atoms: _355  and  _356
REMARK  150  A    between atoms: _355  and  _358
REMARK  151  A    between atoms: _358  and  _359
REMARK  152  A    between atoms: _359  and  _360
REMARK  153  A    between atoms: _363  and  _365
REMARK  154  A    between atoms: _365  and  _366
REMARK  155  A    between atoms: _365  and  _368
REMARK  156  A    between atoms: _368  and  _369
REMARK  157  A    between atoms: _372  and  _374
REMARK  158  A    between atoms: _374  and  _375
REMARK  159  A    between atoms: _374  and  _377
REMARK  160  A    between atoms: _377  and  _378
REMARK  161  A    between atoms: _381  and  _383
REMARK  162  A    between atoms: _383  and  _384
REMARK  163  A    between atoms: _383  and  _386
REMARK  164  A    between atoms: _386  and  _387
REMARK  165  A    between atoms: _390  and  _392
REMARK  166  A    between atoms: _392  and  _393
REMARK                            x       y       z     vdW  Elec       q    Type
REMARK                         _______ _______ _______ _____ _____    ______ ____
ROOT
ATOM      1  C   UNK A   1      59.349 -58.948  18.065  0.00  0.00    +0.000 C 
ATOM      2  O   UNK A   1      59.742 -58.023  18.808  0.00  0.00    +0.000 OA
ATOM      3  N   GLU A   2      59.543 -58.976  16.747  0.00  0.00    +0.000 N 
ATOM      4  H   GLU A   2      59.122 -59.760  16.209  0.00  0.00    +0.000 HD
ENDROOT
BRANCH   1   5
ATOM      5  C   UNK A   1      58.592 -60.158  18.637  0.00  0.00    +0.000 C 
BRANCH   5   6
ATOM      6  N   UNK A   1      59.218 -60.670  19.844  0.00  0.00    +0.000 NA
ATOM      7  H   UNK A   1      59.129 -60.130  20.728  0.00  0.00    +0.000 HD
ENDBRANCH   5   6
BRANCH   5   8
ATOM      8  C   UNK A   1      57.144 -59.784  18.946  0.00  0.00    +0.000 C 
BRANCH   8   9
ATOM      9  C   UNK A   1      56.321 -59.253  17.769  0.00  0.00    +0.000 C 
BRANCH   9  10
ATOM     10  C   UNK A   1      54.904 -58.885  18.195  0.00  0.00    +0.000 C 
ATOM     11  O   UNK A   1      54.306 -59.597  19.035  0.00  0.00    +0.000 OA
BRANCH  10  12
ATOM     12  O   UNK A   1      54.373 -57.869  17.692  0.00  0.00    +0.000 OA
BRANCH  12  13
ATOM     13 MG   UNK A   1      54.086 -55.862  17.429  0.00  0.00    +0.000 Mg
ATOM     14  O   UNK A   1      56.049 -55.424  16.824  0.00  0.00    +0.000 OA
ENDBRANCH  12  13
ENDBRANCH  10  12
ENDBRANCH   9  10
ENDBRANCH   8   9
ENDBRANCH   5   8
ENDBRANCH   1   5
BRANCH   3  15
ATOM     15  CA  GLU A   2      60.317 -57.965  16.005  0.00  0.00    +0.000 C 
BRANCH  15  16
ATOM     16  C   GLU A   2      61.502 -57.388  16.783  0.00  0.00    +0.000 C 
ATOM     17  O   GLU A   2      61.528 -56.185  17.101  0.00  0.00    +0.000 OA
ENDBRANCH  15  16
BRANCH  15  18
ATOM     18  CB  GLU A   2      59.405 -56.843  15.503  0.00  0.00    +0.000 C 
BRANCH  18  19
ATOM     19  CG  GLU A   2      58.420 -57.299  14.433  0.00  0.00    +0.000 C 
BRANCH  19  20
ATOM     20  CD  GLU A   2      57.768 -56.114  13.723  0.00  0.00    +0.000 C 
ATOM     21  OE2 GLU A   2      57.270 -55.196  14.423  0.00  0.00    +0.000 OA
ATOM     22  OE1 GLU A   2      57.766 -56.102  12.464  0.00  0.00    +0.000 OA
ENDBRANCH  19  20
ENDBRANCH  18  19
ENDBRANCH  15  18
ENDBRANCH   3  15
TORSDOF 12
REMARK  Name = ../refined-set-2016/3uxk/3uxk_pocket.pdb
REMARK  166 active torsions:
REMARK  status: ('A' for Active; 'I' for Inactive)
REMARK    1  A    between atoms: _1  and  _3
REMARK    2  A    between atoms: _3  and  _4
REMARK    3  A    between atoms: _3  and  _6
REMARK    4  A    between atoms: _6  and  _7
REMARK    5  A    between atoms: _11  and  _12
REMARK    6  A    between atoms: _17  and  _19
REMARK    7  A    between atoms: _19  and  _20
REMARK    8  A    between atoms: _19  and  _22
REMARK    9  A    between atoms: _25  and  _27
REMARK   10  A    between atoms: _27  and  _28
REMARK   11  A    between atoms: _27  and  _30
REMARK   12  A    between atoms: _30  and  _31
REMARK   13  A    between atoms: _36  and  _38
REMARK   14  A    between atoms: _38  and  _39
REMARK   15  A    between atoms: _38  and  _41
REMARK   16  A    between atoms: _41  and  _42
REMARK   17  A    between atoms: _45  and  _47
REMARK   18  A    between atoms: _47  and  _48
REMARK   19  A    between atoms: _51  and  _53
REMARK   20  A    between atoms: _53  and  _54
REMARK   21  A    between atoms: _53  and  _56
REMARK   22  A    between atoms: _59  and  _61
REMARK   23  A    between atoms: _61  and  _62
REMARK   24  A    between atoms: _64  and  _66
REMARK   25  A    between atoms: _66  and  _67
REMARK   26  A    between atoms: _66  and  _69
REMARK   27  A    between atoms: _69  and  _70
REMARK   28  A    between atoms: _73  and  _75
REMARK   29  A    between atoms: _75  and  _76
REMARK   30  A    between atoms: _75  and  _78
REMARK   31  A    between atoms: _81  and  _83
REMARK   32  A    between atoms: _83  and  _84
REMARK   33  A    between atoms: _83  and  _86
REMARK   34  A    between atoms: _86  and  _87
REMARK   35  A    between atoms: _90  and  _92
REMARK   36  A    between atoms: _92  and  _93
REMARK   37  A    between atoms: _92  and  _95
REMARK   38  A    between atoms: _95  and  _96
REMARK   39  A    between atoms: _102  and  _104
REMARK   40  A    between atoms: _104  and  _105
REMARK   41  A    between atoms: _104  and  _107
REMARK   42  A    between atoms: _107  and  _108
REMARK   43  A    between atoms: _113  and  _114
REMARK   44  A    between atoms: _116  and  _118
REMARK   45  A    between atoms: _118  and  _119
REMARK   46  A    between atoms: _118  and  _121
REMARK   47  A    between atoms: _121  and  _122
REMARK   48  A    between atoms: _127  and  _128
REMARK   49  A    between atoms: _130  and  _132
REMARK   50  A    between atoms: _132  and  _133
REMARK   51  A    between atoms: _132  and  _135
REMARK   52  A    between atoms: _135  and  _136
REMARK   53  A    between atoms: _138  and  _140
REMARK   54  A    between atoms: _140  and  _141
REMARK   55  A    between atoms: _140  and  _143
REMARK   56  A    between atoms: _143  and  _144
REMARK   57  A    between atoms: _149  and  _151
REMARK   58  A    between atoms: _151  and  _152
REMARK   59  A    between atoms: _151  and  _154
REMARK   60  A    between atoms: _154  and  _155
REMARK   61  A    between atoms: _157  and  _159
REMARK   62  A    between atoms: _159  and  _160
REMARK   63  A    between atoms: _159  and  _162
REMARK   64  A    between atoms: _162  and  _163
REMARK   65  A    between atoms: _163  and  _164
REMARK   66  A    between atoms: _164  and  _165
REMARK   67  A    between atoms: _165  and  _166
REMARK   68  A    between atoms: _170  and  _172
REMARK   69  A    between atoms: _172  and  _173
REMARK   70  A    between atoms: _172  and  _175
REMARK   71  A    between atoms: _175  and  _176
REMARK   72  A    between atoms: _179  and  _181
REMARK   73  A    between atoms: _181  and  _182
REMARK   74  A    between atoms: _181  and  _184
REMARK   75  A    between atoms: _184  and  _185
REMARK   76  A    between atoms: _185  and  _186
REMARK   77  A    between atoms: _186  and  _187
REMARK   78  A    between atoms: _187  and  _188
REMARK   79  A    between atoms: _192  and  _194
REMARK   80  A    between atoms: _194  and  _195
REMARK   81  A    between atoms: _194  and  _197
REMARK   82  A    between atoms: _197  and  _198
REMARK   83  A    between atoms: _201  and  _203
REMARK   84  A    between atoms: _203  and  _204
REMARK   85  A    between atoms: _203  and  _206
REMARK   86  A    between atoms: _206  and  _207
REMARK   87  A    between atoms: _212  and  _213
REMARK   88  A    between atoms: _215  and  _217
REMARK   89  A    between atoms: _217  and  _218
REMARK   90  A    between atoms: _217  and  _220
REMARK   91  A    between atoms: _220  and  _221
REMARK   92  A    between atoms: _226  and  _228
REMARK   93  A    between atoms: _228  and  _229
REMARK   94  A    between atoms: _228  and  _231
REMARK   95  A    between atoms: _231  and  _232
REMARK   96  A    between atoms: _232  and  _233
REMARK   97  A    between atoms: _238  and  _240
REMARK   98  A    between atoms: _240  and  _241
REMARK   99  A    between atoms: _240  and  _243
REMARK  100  A    between atoms: _243  and  _244
REMARK  101  A    between atoms: _254  and  _256
REMARK  102  A    between atoms: _256  and  _257
REMARK  103  A    between atoms: _256  and  _259
REMARK  104  A    between atoms: _259  and  _260
REMARK  105  A    between atoms: _260  and  _261
REMARK  106  A    between atoms: _261  and  _262
REMARK  107  A    between atoms: _262  and  MG_396
REMARK  108  A    between atoms: _264  and  _266
REMARK  109  A    between atoms: _266  and  _267
REMARK  110  A    between atoms: _266  and  _269
REMARK  111  A    between atoms: _269  and  _270
REMARK  112  A    between atoms: _270  and  _271
REMARK  113  A    between atoms: _274  and  _276
REMARK  114  A    between atoms: _276  and  _277
REMARK  115  A    between atoms: _276  and  _279
REMARK  116  A    between atoms: _279  and  _280
REMARK  117  A    between atoms: _280  and  _281
REMARK  118  A    between atoms: _286  and  _288
REMARK  119  A    between atoms: _288  and  _289
REMARK  120  A    between atoms: _288  and  _291
REMARK  121  A    between atoms: _291  and  _292
REMARK  122  A    between atoms: _292  and  _293
REMARK  123  A    between atoms: _296  and  _298
REMARK  124  A    between atoms: _298  and  _299
REMARK  125  A    between atoms: _298  and  _301
REMARK  126  A    between atoms: _301  and  _302
REMARK  127  A    between atoms: _307  and  _309
REMARK  128  A    between atoms: _309  and  _310
REMARK  129  A    between atoms: _309  and  _312
REMARK  130  A    between atoms: _312  and  _313
REMARK  131  A    between atoms: _313  and  _314
REMARK  132  A    between atoms: _316  and  _318
REMARK  133  A    between atoms: _318  and  _319
REMARK  134  A    between atoms: _318  and  _321
REMARK  135  A    between atoms: _321  and  _322
REMARK  136  A    between atoms: _325  and  _327
REMARK  137  A    between atoms: _327  and  _328
REMARK  138  A    between atoms: _327  and  _330
REMARK  139  A    between atoms: _330  and  _331
REMARK  140  A    between atoms: _333  and  _335
REMARK  141  A    between atoms: _335  and  _336
REMARK  142  A    between atoms: _335  and  _338
REMARK  143  A    between atoms: _338  and  _339
REMARK  144  A    between atoms: _344  and  _346
REMARK  145  A    between atoms: _346  and  _347
REMARK  146  A    between atoms: _346  and  _349
REMARK  147  A    between atoms: _349  and  _350
REMARK  148  A    between atoms: _353  and  _355
REMARK  149  A    between atoms: _355  and  _356
REMARK  150  A    between atoms: _355  and  _358
REMARK  151  A    between atoms: _358  and  _359
REMARK  152  A    between atoms: _359  and  _360
REMARK  153  A    between atoms: _363  and  _365
REMARK  154  A    between atoms: _365  and  _366
REMARK  155  A    between atoms: _365  and  _368
REMARK  156  A    between atoms: _368  and  _369
REMARK  157  A    between atoms: _372  and  _374
REMARK  158  A    between atoms: _374  and  _375
REMARK  159  A    between atoms: _374  and  _377
REMARK  160  A    between atoms: _377  and  _378
REMARK  161  A    between atoms: _381  and  _383
REMARK  162  A    between atoms: _383  and  _384
REMARK  163  A    between atoms: _383  and  _386
REMARK  164  A    between atoms: _386  and  _387
REMARK  165  A    between atoms: _390  and  _392
REMARK  166  A    between atoms: _392  and  _393
REMARK                            x       y       z     vdW  Elec       q    Type
REMARK                         _______ _______ _______ _____ _____    ______ ____
ROOT
ATOM      1  CB  GLN A   1      56.840 -63.545  17.495  0.00  0.00    +0.035 C 
ENDROOT
BRANCH   1   2
ATOM      2  CA  GLN A   1      57.859 -63.739  16.353  0.00  0.00    +0.134 C 
BRANCH   2   3
ATOM      3  N   GLN A   1      59.157 -64.015  16.925  0.00  0.00    -0.239 NA
ATOM      4  H   GLN A   1      59.531 -63.355  17.636  0.00  0.00    +0.142 HD
ENDBRANCH   2   3
BRANCH   2   5
ATOM      5  C   GLN A   1      57.946 -62.501  15.459  0.00  0.00    +0.224 C 
ATOM      6  O   GLN A   1      58.587 -61.507  15.818  0.00  0.00    -0.287 OA
ENDBRANCH   2   5
ENDBRANCH   1   2
BRANCH   1   7
ATOM      7  CG  GLN A   1      55.455 -63.011  17.117  0.00  0.00    +0.087 C 
BRANCH   7   8
ATOM      8  CD  GLN A   1      54.632 -64.050  16.372  0.00  0.00    +0.219 C 
ATOM      9  NE2 GLN A   1      53.664 -64.673  17.076  0.00  0.00    -0.329 N 
ATOM     10 HE21 GLN A   1      53.512 -64.432  18.076  0.00  0.00    +0.145 HD
ATOM     11 HE22 GLN A   1      53.070 -65.394  16.618  0.00  0.00    +0.145 HD
ATOM     12  OE1 GLN A   1      54.863 -64.297  15.165  0.00  0.00    -0.275 OA
ENDBRANCH   7   8
ENDBRANCH   1   7
TORSDOF 5
REMARK  Name = ../refined-set-2016/3uxk/3uxk_pocket.pdb
REMARK  166 active torsions:
REMARK  status: ('A' for Active; 'I' for Inactive)
REMARK    1  A    between atoms: _1  and  _3
REMARK    2  A    between atoms: _3  and  _4
REMARK    3  A    between atoms: _3  and  _6
REMARK    4  A    between atoms: _6  and  _7
REMARK    5  A    between atoms: _11  and  _12
REMARK    6  A    between atoms: _17  and  _19
REMARK    7  A    between atoms: _19  and  _20
REMARK    8  A    between atoms: _19  and  _22
REMARK    9  A    between atoms: _25  and  _27
REMARK   10  A    between atoms: _27  and  _28
REMARK   11  A    between atoms: _27  and  _30
REMARK   12  A    between atoms: _30  and  _31
REMARK   13  A    between atoms: _36  and  _38
REMARK   14  A    between atoms: _38  and  _39
REMARK   15  A    between atoms: _38  and  _41
REMARK   16  A    between atoms: _41  and  _42
REMARK   17  A    between atoms: _45  and  _47
REMARK   18  A    between atoms: _47  and  _48
REMARK   19  A    between atoms: _51  and  _53
REMARK   20  A    between atoms: _53  and  _54
REMARK   21  A    between atoms: _53  and  _56
REMARK   22  A    between atoms: _59  and  _61
REMARK   23  A    between atoms: _61  and  _62
REMARK   24  A    between atoms: _64  and  _66
REMARK   25  A    between atoms: _66  and  _67
REMARK   26  A    between atoms: _66  and  _69
REMARK   27  A    between atoms: _69  and  _70
REMARK   28  A    between atoms: _73  and  _75
REMARK   29  A    between atoms: _75  and  _76
REMARK   30  A    between atoms: _75  and  _78
REMARK   31  A    between atoms: _81  and  _83
REMARK   32  A    between atoms: _83  and  _84
REMARK   33  A    between atoms: _83  and  _86
REMARK   34  A    between atoms: _86  and  _87
REMARK   35  A    between atoms: _90  and  _92
REMARK   36  A    between atoms: _92  and  _93
REMARK   37  A    between atoms: _92  and  _95
REMARK   38  A    between atoms: _95  and  _96
REMARK   39  A    between atoms: _102  and  _104
REMARK   40  A    between atoms: _104  and  _105
REMARK   41  A    between atoms: _104  and  _107
REMARK   42  A    between atoms: _107  and  _108
REMARK   43  A    between atoms: _113  and  _114
REMARK   44  A    between atoms: _116  and  _118
REMARK   45  A    between atoms: _118  and  _119
REMARK   46  A    between atoms: _118  and  _121
REMARK   47  A    between atoms: _121  and  _122
REMARK   48  A    between atoms: _127  and  _128
REMARK   49  A    between atoms: _130  and  _132
REMARK   50  A    between atoms: _132  and  _133
REMARK   51  A    between atoms: _132  and  _135
REMARK   52  A    between atoms: _135  and  _136
REMARK   53  A    between atoms: _138  and  _140
REMARK   54  A    between atoms: _140  and  _141
REMARK   55  A    between atoms: _140  and  _143
REMARK   56  A    between atoms: _143  and  _144
REMARK   57  A    between atoms: _149  and  _151
REMARK   58  A    between atoms: _151  and  _152
REMARK   59  A    between atoms: _151  and  _154
REMARK   60  A    between atoms: _154  and  _155
REMARK   61  A    between atoms: _157  and  _159
REMARK   62  A    between atoms: _159  and  _160
REMARK   63  A    between atoms: _159  and  _162
REMARK   64  A    between atoms: _162  and  _163
REMARK   65  A    between atoms: _163  and  _164
REMARK   66  A    between atoms: _164  and  _165
REMARK   67  A    between atoms: _165  and  _166
REMARK   68  A    between atoms: _170  and  _172
REMARK   69  A    between atoms: _172  and  _173
REMARK   70  A    between atoms: _172  and  _175
REMARK   71  A    between atoms: _175  and  _176
REMARK   72  A    between atoms: _179  and  _181
REMARK   73  A    between atoms: _181  and  _182
REMARK   74  A    between atoms: _181  and  _184
REMARK   75  A    between atoms: _184  and  _185
REMARK   76  A    between atoms: _185  and  _186
REMARK   77  A    between atoms: _186  and  _187
REMARK   78  A    between atoms: _187  and  _188
REMARK   79  A    between atoms: _192  and  _194
REMARK   80  A    between atoms: _194  and  _195
REMARK   81  A    between atoms: _194  and  _197
REMARK   82  A    between atoms: _197  and  _198
REMARK   83  A    between atoms: _201  and  _203
REMARK   84  A    between atoms: _203  and  _204
REMARK   85  A    between atoms: _203  and  _206
REMARK   86  A    between atoms: _206  and  _207
REMARK   87  A    between atoms: _212  and  _213
REMARK   88  A    between atoms: _215  and  _217
REMARK   89  A    between atoms: _217  and  _218
REMARK   90  A    between atoms: _217  and  _220
REMARK   91  A    between atoms: _220  and  _221
REMARK   92  A    between atoms: _226  and  _228
REMARK   93  A    between atoms: _228  and  _229
REMARK   94  A    between atoms: _228  and  _231
REMARK   95  A    between atoms: _231  and  _232
REMARK   96  A    between atoms: _232  and  _233
REMARK   97  A    between atoms: _238  and  _240
REMARK   98  A    between atoms: _240  and  _241
REMARK   99  A    between atoms: _240  and  _243
REMARK  100  A    between atoms: _243  and  _244
REMARK  101  A    between atoms: _254  and  _256
REMARK  102  A    between atoms: _256  and  _257
REMARK  103  A    between atoms: _256  and  _259
REMARK  104  A    between atoms: _259  and  _260
REMARK  105  A    between atoms: _260  and  _261
REMARK  106  A    between atoms: _261  and  _262
REMARK  107  A    between atoms: _262  and  MG_396
REMARK  108  A    between atoms: _264  and  _266
REMARK  109  A    between atoms: _266  and  _267
REMARK  110  A    between atoms: _266  and  _269
REMARK  111  A    between atoms: _269  and  _270
REMARK  112  A    between atoms: _270  and  _271
REMARK  113  A    between atoms: _274  and  _276
REMARK  114  A    between atoms: _276  and  _277
REMARK  115  A    between atoms: _276  and  _279
REMARK  116  A    between atoms: _279  and  _280
REMARK  117  A    between atoms: _280  and  _281
REMARK  118  A    between atoms: _286  and  _288
REMARK  119  A    between atoms: _288  and  _289
REMARK  120  A    between atoms: _288  and  _291
REMARK  121  A    between atoms: _291  and  _292
REMARK  122  A    between atoms: _292  and  _293
REMARK  123  A    between atoms: _296  and  _298
REMARK  124  A    between atoms: _298  and  _299
REMARK  125  A    between atoms: _298  and  _301
REMARK  126  A    between atoms: _301  and  _302
REMARK  127  A    between atoms: _307  and  _309
REMARK  128  A    between atoms: _309  and  _310
REMARK  129  A    between atoms: _309  and  _312
REMARK  130  A    between atoms: _312  and  _313
REMARK  131  A    between atoms: _313  and  _314
REMARK  132  A    between atoms: _316  and  _318
REMARK  133  A    between atoms: _318  and  _319
REMARK  134  A    between atoms: _318  and  _321
REMARK  135  A    between atoms: _321  and  _322
REMARK  136  A    between atoms: _325  and  _327
REMARK  137  A    between atoms: _327  and  _328
REMARK  138  A    between atoms: _327  and  _330
REMARK  139  A    between atoms: _330  and  _331
REMARK  140  A    between atoms: _333  and  _335
REMARK  141  A    between atoms: _335  and  _336
REMARK  142  A    between atoms: _335  and  _338
REMARK  143  A    between atoms: _338  and  _339
REMARK  144  A    between atoms: _344  and  _346
REMARK  145  A    between atoms: _346  and  _347
REMARK  146  A    between atoms: _346  and  _349
REMARK  147  A    between atoms: _349  and  _350
REMARK  148  A    between atoms: _353  and  _355
REMARK  149  A    between atoms: _355  and  _356
REMARK  150  A    between atoms: _355  and  _358
REMARK  151  A    between atoms: _358  and  _359
REMARK  152  A    between atoms: _359  and  _360
REMARK  153  A    between atoms: _363  and  _365
REMARK  154  A    between atoms: _365  and  _366
REMARK  155  A    between atoms: _365  and  _368
REMARK  156  A    between atoms: _368  and  _369
REMARK  157  A    between atoms: _372  and  _374
REMARK  158  A    between atoms: _374  and  _375
REMARK  159  A    between atoms: _374  and  _377
REMARK  160  A    between atoms: _377  and  _378
REMARK  161  A    between atoms: _381  and  _383
REMARK  162  A    between atoms: _383  and  _384
REMARK  163  A    between atoms: _383  and  _386
REMARK  164  A    between atoms: _386  and  _387
REMARK  165  A    between atoms: _390  and  _392
REMARK  166  A    between atoms: _392  and  _393
REMARK                            x       y       z     vdW  Elec       q    Type
REMARK                         _______ _______ _______ _____ _____    ______ ____
ROOT
ATOM      1  C   GLU A   1      53.101 -56.597  10.278  0.00  0.00    +0.238 C 
ATOM      2  N   ASN A   2      54.360 -56.557   9.844  0.00  0.00    -0.298 N 
ATOM      3  H   ASN A   2      55.049 -57.241  10.217  0.00  0.00    +0.150 HD
ATOM      4  O   GLU A   1      52.211 -55.873   9.836  0.00  0.00    -0.274 OA
ENDROOT
BRANCH   1   5
ATOM      5  CA  GLU A   1      52.790 -57.601  11.378  0.00  0.00    +0.145 C 
BRANCH   5   6
ATOM      6  N   GLU A   1      53.754 -58.707  11.437  0.00  0.00    -0.238 NA
ATOM      7  H   GLU A   1      54.297 -58.879  12.307  0.00  0.00    +0.142 HD
ENDBRANCH   5   6
BRANCH   5   8
ATOM      8  CB  GLU A   1      52.711 -56.854  12.703  0.00  0.00    +0.038 C 
BRANCH   8   9
ATOM      9  CG  GLU A   1      53.894 -55.961  12.997  0.00  0.00    +0.116 C 
BRANCH   9  10
ATOM     10  CD  GLU A   1      53.864 -55.528  14.433  0.00  0.00    +0.365 C 
ATOM     11  OE2 GLU A   1      53.909 -56.398  15.315  0.00  0.00    -0.246 OA
ATOM     12  OE1 GLU A   1      53.767 -54.318  14.694  0.00  0.00    -0.246 OA
ENDBRANCH   9  10
ENDBRANCH   8   9
ENDBRANCH   5   8
ENDBRANCH   1   5
BRANCH   2  13
ATOM     13  CA  ASN A   2      54.792 -55.576   8.859  0.00  0.00    +0.146 C 
BRANCH  13  14
ATOM     14  C   ASN A   2      54.986 -56.152   7.451  0.00  0.00    +0.227 C 
ATOM     15  O   ASN A   2      55.356 -55.423   6.529  0.00  0.00    -0.286 OA
ENDBRANCH  13  14
BRANCH  13  16
ATOM     16  CB  ASN A   2      56.032 -54.842   9.360  0.00  0.00    +0.112 C 
BRANCH  16  17
ATOM     17  CG  ASN A   2      55.696 -53.857  10.458  0.00  0.00    +0.222 C 
ATOM     18  ND2 ASN A   2      56.390 -53.956  11.587  0.00  0.00    -0.329 N 
ATOM     19 HD21 ASN A   2      56.187 -53.315  12.380  0.00  0.00    +0.145 HD
ATOM     20 HD22 ASN A   2      57.136 -54.675  11.677  0.00  0.00    +0.145 HD
ATOM     21  OD1 ASN A   2      54.797 -53.020  10.297  0.00  0.00    -0.275 OA
ENDBRANCH  16  17
ENDBRANCH  13  16
ENDBRANCH   2  13
TORSDOF 9
REMARK  Name = ../refined-set-2016/3uxk/3uxk_pocket.pdb
REMARK  166 active torsions:
REMARK  status: ('A' for Active; 'I' for Inactive)
REMARK    1  A    between atoms: _1  and  _3
REMARK    2  A    between atoms: _3  and  _4
REMARK    3  A    between atoms: _3  and  _6
REMARK    4  A    between atoms: _6  and  _7
REMARK    5  A    between atoms: _11  and  _12
REMARK    6  A    between atoms: _17  and  _19
REMARK    7  A    between atoms: _19  and  _20
REMARK    8  A    between atoms: _19  and  _22
REMARK    9  A    between atoms: _25  and  _27
REMARK   10  A    between atoms: _27  and  _28
REMARK   11  A    between atoms: _27  and  _30
REMARK   12  A    between atoms: _30  and  _31
REMARK   13  A    between atoms: _36  and  _38
REMARK   14  A    between atoms: _38  and  _39
REMARK   15  A    between atoms: _38  and  _41
REMARK   16  A    between atoms: _41  and  _42
REMARK   17  A    between atoms: _45  and  _47
REMARK   18  A    between atoms: _47  and  _48
REMARK   19  A    between atoms: _51  and  _53
REMARK   20  A    between atoms: _53  and  _54
REMARK   21  A    between atoms: _53  and  _56
REMARK   22  A    between atoms: _59  and  _61
REMARK   23  A    between atoms: _61  and  _62
REMARK   24  A    between atoms: _64  and  _66
REMARK   25  A    between atoms: _66  and  _67
REMARK   26  A    between atoms: _66  and  _69
REMARK   27  A    between atoms: _69  and  _70
REMARK   28  A    between atoms: _73  and  _75
REMARK   29  A    between atoms: _75  and  _76
REMARK   30  A    between atoms: _75  and  _78
REMARK   31  A    between atoms: _81  and  _83
REMARK   32  A    between atoms: _83  and  _84
REMARK   33  A    between atoms: _83  and  _86
REMARK   34  A    between atoms: _86  and  _87
REMARK   35  A    between atoms: _90  and  _92
REMARK   36  A    between atoms: _92  and  _93
REMARK   37  A    between atoms: _92  and  _95
REMARK   38  A    between atoms: _95  and  _96
REMARK   39  A    between atoms: _102  and  _104
REMARK   40  A    between atoms: _104  and  _105
REMARK   41  A    between atoms: _104  and  _107
REMARK   42  A    between atoms: _107  and  _108
REMARK   43  A    between atoms: _113  and  _114
REMARK   44  A    between atoms: _116  and  _118
REMARK   45  A    between atoms: _118  and  _119
REMARK   46  A    between atoms: _118  and  _121
REMARK   47  A    between atoms: _121  and  _122
REMARK   48  A    between atoms: _127  and  _128
REMARK   49  A    between atoms: _130  and  _132
REMARK   50  A    between atoms: _132  and  _133
REMARK   51  A    between atoms: _132  and  _135
REMARK   52  A    between atoms: _135  and  _136
REMARK   53  A    between atoms: _138  and  _140
REMARK   54  A    between atoms: _140  and  _141
REMARK   55  A    between atoms: _140  and  _143
REMARK   56  A    between atoms: _143  and  _144
REMARK   57  A    between atoms: _149  and  _151
REMARK   58  A    between atoms: _151  and  _152
REMARK   59  A    between atoms: _151  and  _154
REMARK   60  A    between atoms: _154  and  _155
REMARK   61  A    between atoms: _157  and  _159
REMARK   62  A    between atoms: _159  and  _160
REMARK   63  A    between atoms: _159  and  _162
REMARK   64  A    between atoms: _162  and  _163
REMARK   65  A    between atoms: _163  and  _164
REMARK   66  A    between atoms: _164  and  _165
REMARK   67  A    between atoms: _165  and  _166
REMARK   68  A    between atoms: _170  and  _172
REMARK   69  A    between atoms: _172  and  _173
REMARK   70  A    between atoms: _172  and  _175
REMARK   71  A    between atoms: _175  and  _176
REMARK   72  A    between atoms: _179  and  _181
REMARK   73  A    between atoms: _181  and  _182
REMARK   74  A    between atoms: _181  and  _184
REMARK   75  A    between atoms: _184  and  _185
REMARK   76  A    between atoms: _185  and  _186
REMARK   77  A    between atoms: _186  and  _187
REMARK   78  A    between atoms: _187  and  _188
REMARK   79  A    between atoms: _192  and  _194
REMARK   80  A    between atoms: _194  and  _195
REMARK   81  A    between atoms: _194  and  _197
REMARK   82  A    between atoms: _197  and  _198
REMARK   83  A    between atoms: _201  and  _203
REMARK   84  A    between atoms: _203  and  _204
REMARK   85  A    between atoms: _203  and  _206
REMARK   86  A    between atoms: _206  and  _207
REMARK   87  A    between atoms: _212  and  _213
REMARK   88  A    between atoms: _215  and  _217
REMARK   89  A    between atoms: _217  and  _218
REMARK   90  A    between atoms: _217  and  _220
REMARK   91  A    between atoms: _220  and  _221
REMARK   92  A    between atoms: _226  and  _228
REMARK   93  A    between atoms: _228  and  _229
REMARK   94  A    between atoms: _228  and  _231
REMARK   95  A    between atoms: _231  and  _232
REMARK   96  A    between atoms: _232  and  _233
REMARK   97  A    between atoms: _238  and  _240
REMARK   98  A    between atoms: _240  and  _241
REMARK   99  A    between atoms: _240  and  _243
REMARK  100  A    between atoms: _243  and  _244
REMARK  101  A    between atoms: _254  and  _256
REMARK  102  A    between atoms: _256  and  _257
REMARK  103  A    between atoms: _256  and  _259
REMARK  104  A    between atoms: _259  and  _260
REMARK  105  A    between atoms: _260  and  _261
REMARK  106  A    between atoms: _261  and  _262
REMARK  107  A    between atoms: _262  and  MG_396
REMARK  108  A    between atoms: _264  and  _266
REMARK  109  A    between atoms: _266  and  _267
REMARK  110  A    between atoms: _266  and  _269
REMARK  111  A    between atoms: _269  and  _270
REMARK  112  A    between atoms: _270  and  _271
REMARK  113  A    between atoms: _274  and  _276
REMARK  114  A    between atoms: _276  and  _277
REMARK  115  A    between atoms: _276  and  _279
REMARK  116  A    between atoms: _279  and  _280
REMARK  117  A    between atoms: _280  and  _281
REMARK  118  A    between atoms: _286  and  _288
REMARK  119  A    between atoms: _288  and  _289
REMARK  120  A    between atoms: _288  and  _291
REMARK  121  A    between atoms: _291  and  _292
REMARK  122  A    between atoms: _292  and  _293
REMARK  123  A    between atoms: _296  and  _298
REMARK  124  A    between atoms: _298  and  _299
REMARK  125  A    between atoms: _298  and  _301
REMARK  126  A    between atoms: _301  and  _302
REMARK  127  A    between atoms: _307  and  _309
REMARK  128  A    between atoms: _309  and  _310
REMARK  129  A    between atoms: _309  and  _312
REMARK  130  A    between atoms: _312  and  _313
REMARK  131  A    between atoms: _313  and  _314
REMARK  132  A    between atoms: _316  and  _318
REMARK  133  A    between atoms: _318  and  _319
REMARK  134  A    between atoms: _318  and  _321
REMARK  135  A    between atoms: _321  and  _322
REMARK  136  A    between atoms: _325  and  _327
REMARK  137  A    between atoms: _327  and  _328
REMARK  138  A    between atoms: _327  and  _330
REMARK  139  A    between atoms: _330  and  _331
REMARK  140  A    between atoms: _333  and  _335
REMARK  141  A    between atoms: _335  and  _336
REMARK  142  A    between atoms: _335  and  _338
REMARK  143  A    between atoms: _338  and  _339
REMARK  144  A    between atoms: _344  and  _346
REMARK  145  A    between atoms: _346  and  _347
REMARK  146  A    between atoms: _346  and  _349
REMARK  147  A    between atoms: _349  and  _350
REMARK  148  A    between atoms: _353  and  _355
REMARK  149  A    between atoms: _355  and  _356
REMARK  150  A    between atoms: _355  and  _358
REMARK  151  A    between atoms: _358  and  _359
REMARK  152  A    between atoms: _359  and  _360
REMARK  153  A    between atoms: _363  and  _365
REMARK  154  A    between atoms: _365  and  _366
REMARK  155  A    between atoms: _365  and  _368
REMARK  156  A    between atoms: _368  and  _369
REMARK  157  A    between atoms: _372  and  _374
REMARK  158  A    between atoms: _374  and  _375
REMARK  159  A    between atoms: _374  and  _377
REMARK  160  A    between atoms: _377  and  _378
REMARK  161  A    between atoms: _381  and  _383
REMARK  162  A    between atoms: _383  and  _384
REMARK  163  A    between atoms: _383  and  _386
REMARK  164  A    between atoms: _386  and  _387
REMARK  165  A    between atoms: _390  and  _392
REMARK  166  A    between atoms: _392  and  _393
REMARK                            x       y       z     vdW  Elec       q    Type
REMARK                         _______ _______ _______ _____ _____    ______ ____
ROOT
ATOM      1  CA  MET A   1      51.574 -63.021  13.014  0.00  0.00    +0.134 C 
ENDROOT
BRANCH   1   2
ATOM      2  N   MET A   1      52.814 -63.695  12.667  0.00  0.00    -0.239 NA
ATOM      3  H   MET A   1      53.578 -63.160  12.207  0.00  0.00    +0.142 HD
ENDBRANCH   1   2
BRANCH   1   4
ATOM      4  C   MET A   1      51.240 -61.958  11.967  0.00  0.00    +0.224 C 
ATOM      5  O   MET A   1      51.473 -60.771  12.191  0.00  0.00    -0.287 OA
ENDBRANCH   1   4
BRANCH   1   6
ATOM      6  CB  MET A   1      51.640 -62.390  14.427  0.00  0.00    +0.037 C 
BRANCH   6   7
ATOM      7  CG  MET A   1      52.892 -61.544  14.689  0.00  0.00    +0.059 C 
BRANCH   7   8
ATOM      8  SD  MET A   1      52.958 -60.823  16.368  0.00  0.00    -0.139 S 
ATOM      9  CE  MET A   1      51.639 -59.602  16.339  0.00  0.00    +0.069 C 
ENDBRANCH   7   8
ENDBRANCH   6   7
ENDBRANCH   1   6
TORSDOF 5
REMARK  Name = ../refined-set-2016/3uxk/3uxk_pocket.pdb
REMARK  166 active torsions:
REMARK  status: ('A' for Active; 'I' for Inactive)
REMARK    1  A    between atoms: _1  and  _3
REMARK    2  A    between atoms: _3  and  _4
REMARK    3  A    between atoms: _3  and  _6
REMARK    4  A    between atoms: _6  and  _7
REMARK    5  A    between atoms: _11  and  _12
REMARK    6  A    between atoms: _17  and  _19
REMARK    7  A    between atoms: _19  and  _20
REMARK    8  A    between atoms: _19  and  _22
REMARK    9  A    between atoms: _25  and  _27
REMARK   10  A    between atoms: _27  and  _28
REMARK   11  A    between atoms: _27  and  _30
REMARK   12  A    between atoms: _30  and  _31
REMARK   13  A    between atoms: _36  and  _38
REMARK   14  A    between atoms: _38  and  _39
REMARK   15  A    between atoms: _38  and  _41
REMARK   16  A    between atoms: _41  and  _42
REMARK   17  A    between atoms: _45  and  _47
REMARK   18  A    between atoms: _47  and  _48
REMARK   19  A    between atoms: _51  and  _53
REMARK   20  A    between atoms: _53  and  _54
REMARK   21  A    between atoms: _53  and  _56
REMARK   22  A    between atoms: _59  and  _61
REMARK   23  A    between atoms: _61  and  _62
REMARK   24  A    between atoms: _64  and  _66
REMARK   25  A    between atoms: _66  and  _67
REMARK   26  A    between atoms: _66  and  _69
REMARK   27  A    between atoms: _69  and  _70
REMARK   28  A    between atoms: _73  and  _75
REMARK   29  A    between atoms: _75  and  _76
REMARK   30  A    between atoms: _75  and  _78
REMARK   31  A    between atoms: _81  and  _83
REMARK   32  A    between atoms: _83  and  _84
REMARK   33  A    between atoms: _83  and  _86
REMARK   34  A    between atoms: _86  and  _87
REMARK   35  A    between atoms: _90  and  _92
REMARK   36  A    between atoms: _92  and  _93
REMARK   37  A    between atoms: _92  and  _95
REMARK   38  A    between atoms: _95  and  _96
REMARK   39  A    between atoms: _102  and  _104
REMARK   40  A    between atoms: _104  and  _105
REMARK   41  A    between atoms: _104  and  _107
REMARK   42  A    between atoms: _107  and  _108
REMARK   43  A    between atoms: _113  and  _114
REMARK   44  A    between atoms: _116  and  _118
REMARK   45  A    between atoms: _118  and  _119
REMARK   46  A    between atoms: _118  and  _121
REMARK   47  A    between atoms: _121  and  _122
REMARK   48  A    between atoms: _127  and  _128
REMARK   49  A    between atoms: _130  and  _132
REMARK   50  A    between atoms: _132  and  _133
REMARK   51  A    between atoms: _132  and  _135
REMARK   52  A    between atoms: _135  and  _136
REMARK   53  A    between atoms: _138  and  _140
REMARK   54  A    between atoms: _140  and  _141
REMARK   55  A    between atoms: _140  and  _143
REMARK   56  A    between atoms: _143  and  _144
REMARK   57  A    between atoms: _149  and  _151
REMARK   58  A    between atoms: _151  and  _152
REMARK   59  A    between atoms: _151  and  _154
REMARK   60  A    between atoms: _154  and  _155
REMARK   61  A    between atoms: _157  and  _159
REMARK   62  A    between atoms: _159  and  _160
REMARK   63  A    between atoms: _159  and  _162
REMARK   64  A    between atoms: _162  and  _163
REMARK   65  A    between atoms: _163  and  _164
REMARK   66  A    between atoms: _164  and  _165
REMARK   67  A    between atoms: _165  and  _166
REMARK   68  A    between atoms: _170  and  _172
REMARK   69  A    between atoms: _172  and  _173
REMARK   70  A    between atoms: _172  and  _175
REMARK   71  A    between atoms: _175  and  _176
REMARK   72  A    between atoms: _179  and  _181
REMARK   73  A    between atoms: _181  and  _182
REMARK   74  A    between atoms: _181  and  _184
REMARK   75  A    between atoms: _184  and  _185
REMARK   76  A    between atoms: _185  and  _186
REMARK   77  A    between atoms: _186  and  _187
REMARK   78  A    between atoms: _187  and  _188
REMARK   79  A    between atoms: _192  and  _194
REMARK   80  A    between atoms: _194  and  _195
REMARK   81  A    between atoms: _194  and  _197
REMARK   82  A    between atoms: _197  and  _198
REMARK   83  A    between atoms: _201  and  _203
REMARK   84  A    between atoms: _203  and  _204
REMARK   85  A    between atoms: _203  and  _206
REMARK   86  A    between atoms: _206  and  _207
REMARK   87  A    between atoms: _212  and  _213
REMARK   88  A    between atoms: _215  and  _217
REMARK   89  A    between atoms: _217  and  _218
REMARK   90  A    between atoms: _217  and  _220
REMARK   91  A    between atoms: _220  and  _221
REMARK   92  A    between atoms: _226  and  _228
REMARK   93  A    between atoms: _228  and  _229
REMARK   94  A    between atoms: _228  and  _231
REMARK   95  A    between atoms: _231  and  _232
REMARK   96  A    between atoms: _232  and  _233
REMARK   97  A    between atoms: _238  and  _240
REMARK   98  A    between atoms: _240  and  _241
REMARK   99  A    between atoms: _240  and  _243
REMARK  100  A    between atoms: _243  and  _244
REMARK  101  A    between atoms: _254  and  _256
REMARK  102  A    between atoms: _256  and  _257
REMARK  103  A    between atoms: _256  and  _259
REMARK  104  A    between atoms: _259  and  _260
REMARK  105  A    between atoms: _260  and  _261
REMARK  106  A    between atoms: _261  and  _262
REMARK  107  A    between atoms: _262  and  MG_396
REMARK  108  A    between atoms: _264  and  _266
REMARK  109  A    between atoms: _266  and  _267
REMARK  110  A    between atoms: _266  and  _269
REMARK  111  A    between atoms: _269  and  _270
REMARK  112  A    between atoms: _270  and  _271
REMARK  113  A    between atoms: _274  and  _276
REMARK  114  A    between atoms: _276  and  _277
REMARK  115  A    between atoms: _276  and  _279
REMARK  116  A    between atoms: _279  and  _280
REMARK  117  A    between atoms: _280  and  _281
REMARK  118  A    between atoms: _286  and  _288
REMARK  119  A    between atoms: _288  and  _289
REMARK  120  A    between atoms: _288  and  _291
REMARK  121  A    between atoms: _291  and  _292
REMARK  122  A    between atoms: _292  and  _293
REMARK  123  A    between atoms: _296  and  _298
REMARK  124  A    between atoms: _298  and  _299
REMARK  125  A    between atoms: _298  and  _301
REMARK  126  A    between atoms: _301  and  _302
REMARK  127  A    between atoms: _307  and  _309
REMARK  128  A    between atoms: _309  and  _310
REMARK  129  A    between atoms: _309  and  _312
REMARK  130  A    between atoms: _312  and  _313
REMARK  131  A    between atoms: _313  and  _314
REMARK  132  A    between atoms: _316  and  _318
REMARK  133  A    between atoms: _318  and  _319
REMARK  134  A    between atoms: _318  and  _321
REMARK  135  A    between atoms: _321  and  _322
REMARK  136  A    between atoms: _325  and  _327
REMARK  137  A    between atoms: _327  and  _328
REMARK  138  A    between atoms: _327  and  _330
REMARK  139  A    between atoms: _330  and  _331
REMARK  140  A    between atoms: _333  and  _335
REMARK  141  A    between atoms: _335  and  _336
REMARK  142  A    between atoms: _335  and  _338
REMARK  143  A    between atoms: _338  and  _339
REMARK  144  A    between atoms: _344  and  _346
REMARK  145  A    between atoms: _346  and  _347
REMARK  146  A    between atoms: _346  and  _349
REMARK  147  A    between atoms: _349  and  _350
REMARK  148  A    between atoms: _353  and  _355
REMARK  149  A    between atoms: _355  and  _356
REMARK  150  A    between atoms: _355  and  _358
REMARK  151  A    between atoms: _358  and  _359
REMARK  152  A    between atoms: _359  and  _360
REMARK  153  A    between atoms: _363  and  _365
REMARK  154  A    between atoms: _365  and  _366
REMARK  155  A    between atoms: _365  and  _368
REMARK  156  A    between atoms: _368  and  _369
REMARK  157  A    between atoms: _372  and  _374
REMARK  158  A    between atoms: _374  and  _375
REMARK  159  A    between atoms: _374  and  _377
REMARK  160  A    between atoms: _377  and  _378
REMARK  161  A    between atoms: _381  and  _383
REMARK  162  A    between atoms: _383  and  _384
REMARK  163  A    between atoms: _383  and  _386
REMARK  164  A    between atoms: _386  and  _387
REMARK  165  A    between atoms: _390  and  _392
REMARK  166  A    between atoms: _392  and  _393
REMARK                            x       y       z     vdW  Elec       q    Type
REMARK                         _______ _______ _______ _____ _____    ______ ____
ROOT
ATOM      1  CA  ASP A   1      48.247 -58.146  10.089  0.00  0.00    +0.144 C 
ENDROOT
BRANCH   1   2
ATOM      2  N   ASP A   1      49.196 -59.189   9.792  0.00  0.00    -0.239 NA
ATOM      3  H   ASP A   1      49.927 -58.993   9.079  0.00  0.00    +0.142 HD
ENDBRANCH   1   2
BRANCH   1   4
ATOM      4  C   ASP A   1      47.209 -58.205   8.958  0.00  0.00    +0.225 C 
ATOM      5  O   ASP A   1      47.566 -58.112   7.743  0.00  0.00    -0.287 OA
ENDBRANCH   1   4
BRANCH   1   6
ATOM      6  CB  ASP A   1      49.023 -56.821  10.148  0.00  0.00    +0.139 C 
BRANCH   6   7
ATOM      7  CG  ASP A   1      48.124 -55.578  10.207  0.00  0.00    +0.367 C 
ATOM      8  OD2 ASP A   1      48.077 -54.941  11.272  0.00  0.00    -0.246 OA
ATOM      9  OD1 ASP A   1      47.504 -55.212   9.191  0.00  0.00    -0.246 OA
ENDBRANCH   6   7
ENDBRANCH   1   6
TORSDOF 4
REMARK  Name = ../refined-set-2016/3uxk/3uxk_pocket.pdb
REMARK  166 active torsions:
REMARK  status: ('A' for Active; 'I' for Inactive)
REMARK    1  A    between atoms: _1  and  _3
REMARK    2  A    between atoms: _3  and  _4
REMARK    3  A    between atoms: _3  and  _6
REMARK    4  A    between atoms: _6  and  _7
REMARK    5  A    between atoms: _11  and  _12
REMARK    6  A    between atoms: _17  and  _19
REMARK    7  A    between atoms: _19  and  _20
REMARK    8  A    between atoms: _19  and  _22
REMARK    9  A    between atoms: _25  and  _27
REMARK   10  A    between atoms: _27  and  _28
REMARK   11  A    between atoms: _27  and  _30
REMARK   12  A    between atoms: _30  and  _31
REMARK   13  A    between atoms: _36  and  _38
REMARK   14  A    between atoms: _38  and  _39
REMARK   15  A    between atoms: _38  and  _41
REMARK   16  A    between atoms: _41  and  _42
REMARK   17  A    between atoms: _45  and  _47
REMARK   18  A    between atoms: _47  and  _48
REMARK   19  A    between atoms: _51  and  _53
REMARK   20  A    between atoms: _53  and  _54
REMARK   21  A    between atoms: _53  and  _56
REMARK   22  A    between atoms: _59  and  _61
REMARK   23  A    between atoms: _61  and  _62
REMARK   24  A    between atoms: _64  and  _66
REMARK   25  A    between atoms: _66  and  _67
REMARK   26  A    between atoms: _66  and  _69
REMARK   27  A    between atoms: _69  and  _70
REMARK   28  A    between atoms: _73  and  _75
REMARK   29  A    between atoms: _75  and  _76
REMARK   30  A    between atoms: _75  and  _78
REMARK   31  A    between atoms: _81  and  _83
REMARK   32  A    between atoms: _83  and  _84
REMARK   33  A    between atoms: _83  and  _86
REMARK   34  A    between atoms: _86  and  _87
REMARK   35  A    between atoms: _90  and  _92
REMARK   36  A    between atoms: _92  and  _93
REMARK   37  A    between atoms: _92  and  _95
REMARK   38  A    between atoms: _95  and  _96
REMARK   39  A    between atoms: _102  and  _104
REMARK   40  A    between atoms: _104  and  _105
REMARK   41  A    between atoms: _104  and  _107
REMARK   42  A    between atoms: _107  and  _108
REMARK   43  A    between atoms: _113  and  _114
REMARK   44  A    between atoms: _116  and  _118
REMARK   45  A    between atoms: _118  and  _119
REMARK   46  A    between atoms: _118  and  _121
REMARK   47  A    between atoms: _121  and  _122
REMARK   48  A    between atoms: _127  and  _128
REMARK   49  A    between atoms: _130  and  _132
REMARK   50  A    between atoms: _132  and  _133
REMARK   51  A    between atoms: _132  and  _135
REMARK   52  A    between atoms: _135  and  _136
REMARK   53  A    between atoms: _138  and  _140
REMARK   54  A    between atoms: _140  and  _141
REMARK   55  A    between atoms: _140  and  _143
REMARK   56  A    between atoms: _143  and  _144
REMARK   57  A    between atoms: _149  and  _151
REMARK   58  A    between atoms: _151  and  _152
REMARK   59  A    between atoms: _151  and  _154
REMARK   60  A    between atoms: _154  and  _155
REMARK   61  A    between atoms: _157  and  _159
REMARK   62  A    between atoms: _159  and  _160
REMARK   63  A    between atoms: _159  and  _162
REMARK   64  A    between atoms: _162  and  _163
REMARK   65  A    between atoms: _163  and  _164
REMARK   66  A    between atoms: _164  and  _165
REMARK   67  A    between atoms: _165  and  _166
REMARK   68  A    between atoms: _170  and  _172
REMARK   69  A    between atoms: _172  and  _173
REMARK   70  A    between atoms: _172  and  _175
REMARK   71  A    between atoms: _175  and  _176
REMARK   72  A    between atoms: _179  and  _181
REMARK   73  A    between atoms: _181  and  _182
REMARK   74  A    between atoms: _181  and  _184
REMARK   75  A    between atoms: _184  and  _185
REMARK   76  A    between atoms: _185  and  _186
REMARK   77  A    between atoms: _186  and  _187
REMARK   78  A    between atoms: _187  and  _188
REMARK   79  A    between atoms: _192  and  _194
REMARK   80  A    between atoms: _194  and  _195
REMARK   81  A    between atoms: _194  and  _197
REMARK   82  A    between atoms: _197  and  _198
REMARK   83  A    between atoms: _201  and  _203
REMARK   84  A    between atoms: _203  and  _204
REMARK   85  A    between atoms: _203  and  _206
REMARK   86  A    between atoms: _206  and  _207
REMARK   87  A    between atoms: _212  and  _213
REMARK   88  A    between atoms: _215  and  _217
REMARK   89  A    between atoms: _217  and  _218
REMARK   90  A    between atoms: _217  and  _220
REMARK   91  A    between atoms: _220  and  _221
REMARK   92  A    between atoms: _226  and  _228
REMARK   93  A    between atoms: _228  and  _229
REMARK   94  A    between atoms: _228  and  _231
REMARK   95  A    between atoms: _231  and  _232
REMARK   96  A    between atoms: _232  and  _233
REMARK   97  A    between atoms: _238  and  _240
REMARK   98  A    between atoms: _240  and  _241
REMARK   99  A    between atoms: _240  and  _243
REMARK  100  A    between atoms: _243  and  _244
REMARK  101  A    between atoms: _254  and  _256
REMARK  102  A    between atoms: _256  and  _257
REMARK  103  A    between atoms: _256  and  _259
REMARK  104  A    between atoms: _259  and  _260
REMARK  105  A    between atoms: _260  and  _261
REMARK  106  A    between atoms: _261  and  _262
REMARK  107  A    between atoms: _262  and  MG_396
REMARK  108  A    between atoms: _264  and  _266
REMARK  109  A    between atoms: _266  and  _267
REMARK  110  A    between atoms: _266  and  _269
REMARK  111  A    between atoms: _269  and  _270
REMARK  112  A    between atoms: _270  and  _271
REMARK  113  A    between atoms: _274  and  _276
REMARK  114  A    between atoms: _276  and  _277
REMARK  115  A    between atoms: _276  and  _279
REMARK  116  A    between atoms: _279  and  _280
REMARK  117  A    between atoms: _280  and  _281
REMARK  118  A    between atoms: _286  and  _288
REMARK  119  A    between atoms: _288  and  _289
REMARK  120  A    between atoms: _288  and  _291
REMARK  121  A    between atoms: _291  and  _292
REMARK  122  A    between atoms: _292  and  _293
REMARK  123  A    between atoms: _296  and  _298
REMARK  124  A    between atoms: _298  and  _299
REMARK  125  A    between atoms: _298  and  _301
REMARK  126  A    between atoms: _301  and  _302
REMARK  127  A    between atoms: _307  and  _309
REMARK  128  A    between atoms: _309  and  _310
REMARK  129  A    between atoms: _309  and  _312
REMARK  130  A    between atoms: _312  and  _313
REMARK  131  A    between atoms: _313  and  _314
REMARK  132  A    between atoms: _316  and  _318
REMARK  133  A    between atoms: _318  and  _319
REMARK  134  A    between atoms: _318  and  _321
REMARK  135  A    between atoms: _321  and  _322
REMARK  136  A    between atoms: _325  and  _327
REMARK  137  A    between atoms: _327  and  _328
REMARK  138  A    between atoms: _327  and  _330
REMARK  139  A    between atoms: _330  and  _331
REMARK  140  A    between atoms: _333  and  _335
REMARK  141  A    between atoms: _335  and  _336
REMARK  142  A    between atoms: _335  and  _338
REMARK  143  A    between atoms: _338  and  _339
REMARK  144  A    between atoms: _344  and  _346
REMARK  145  A    between atoms: _346  and  _347
REMARK  146  A    between atoms: _346  and  _349
REMARK  147  A    between atoms: _349  and  _350
REMARK  148  A    between atoms: _353  and  _355
REMARK  149  A    between atoms: _355  and  _356
REMARK  150  A    between atoms: _355  and  _358
REMARK  151  A    between atoms: _358  and  _359
REMARK  152  A    between atoms: _359  and  _360
REMARK  153  A    between atoms: _363  and  _365
REMARK  154  A    between atoms: _365  and  _366
REMARK  155  A    between atoms: _365  and  _368
REMARK  156  A    between atoms: _368  and  _369
REMARK  157  A    between atoms: _372  and  _374
REMARK  158  A    between atoms: _374  and  _375
REMARK  159  A    between atoms: _374  and  _377
REMARK  160  A    between atoms: _377  and  _378
REMARK  161  A    between atoms: _381  and  _383
REMARK  162  A    between atoms: _383  and  _384
REMARK  163  A    between atoms: _383  and  _386
REMARK  164  A    between atoms: _386  and  _387
REMARK  165  A    between atoms: _390  and  _392
REMARK  166  A    between atoms: _392  and  _393
REMARK                            x       y       z     vdW  Elec       q    Type
REMARK                         _______ _______ _______ _____ _____    ______ ____
ROOT
ATOM      1  CA  HIS A   2      48.064 -58.675  14.613  0.00  0.00    +0.155 C 
ENDROOT
BRANCH   1   4
ATOM      2  C   SER A   1      47.675 -61.081  14.854  0.00  0.00    +0.241 C 
ATOM      3  O   SER A   1      48.241 -61.133  15.941  0.00  0.00    -0.274 OA
ATOM      4  N   HIS A   2      47.617 -59.981  14.117  0.00  0.00    -0.297 N 
ATOM      5  H   HIS A   2      47.240 -60.046  13.150  0.00  0.00    +0.150 HD
BRANCH   2   6
ATOM      6  CA  SER A   1      47.011 -62.316  14.276  0.00  0.00    +0.174 C 
BRANCH   6   7
ATOM      7  N   SER A   1      47.500 -63.518  14.935  0.00  0.00    -0.236 NA
ATOM      8  H   SER A   1      47.207 -63.717  15.913  0.00  0.00    +0.142 HD
ENDBRANCH   6   7
BRANCH   6   9
ATOM      9  CB  SER A   1      45.478 -62.212  14.380  0.00  0.00    +0.163 C 
BRANCH   9  10
ATOM     10  OG  SER A   1      45.042 -62.009  15.723  0.00  0.00    -0.380 OA
ATOM     11  H   SER A   1      45.432 -61.169  16.072  0.00  0.00    +0.211 HD
ENDBRANCH   9  10
ENDBRANCH   6   9
ENDBRANCH   2   6
ENDBRANCH   1   4
BRANCH   1  12
ATOM     12  C   HIS A   2      46.953 -57.687  14.407  0.00  0.00    +0.241 C 
ATOM     13  N   LEU A   3      46.474 -57.115  15.518  0.00  0.00    -0.298 N 
ATOM     14  H   LEU A   3      46.932 -57.341  16.424  0.00  0.00    +0.150 HD
ATOM     15  O   HIS A   2      46.546 -57.444  13.252  0.00  0.00    -0.273 OA
BRANCH  13  16
ATOM     16  CA  LEU A   3      45.330 -56.180  15.528  0.00  0.00    +0.137 C 
BRANCH  16  17
ATOM     17  C   LEU A   3      44.098 -56.749  14.792  0.00  0.00    +0.227 C 
ATOM     18  O   LEU A   3      43.998 -57.969  14.589  0.00  0.00    -0.286 OA
ENDBRANCH  16  17
BRANCH  16  19
ATOM     19  CB  LEU A   3      45.753 -54.809  14.973  0.00  0.00    +0.028 C 
BRANCH  19  20
ATOM     20  CG  LEU A   3      46.944 -54.163  15.685  0.00  0.00    +0.002 C 
ATOM     21  CD2 LEU A   3      46.649 -53.848  17.157  0.00  0.00    +0.000 C 
ATOM     22  CD1 LEU A   3      47.366 -52.905  14.932  0.00  0.00    +0.000 C 
ENDBRANCH  19  20
ENDBRANCH  16  19
ENDBRANCH  13  16
ENDBRANCH   1  12
BRANCH   1  23
ATOM     23  CB  HIS A   2      49.281 -58.190  13.848  0.00  0.00    +0.076 C 
BRANCH  23  24
ATOM     24  CG  HIS A   2      49.745 -56.819  14.266  0.00  0.00    +0.082 A 
ATOM     25  CD2 HIS A   2      50.406 -56.389  15.416  0.00  0.00    +0.115 A 
ATOM     26  NE2 HIS A   2      50.623 -55.050  15.281  0.00  0.00    -0.221 NA
ATOM     27  CE1 HIS A   2      50.108 -54.640  14.095  0.00  0.00    +0.199 A 
ATOM     28  ND1 HIS A   2      49.571 -55.710  13.482  0.00  0.00    -0.227 NA
ENDBRANCH  23  24
ENDBRANCH   1  23
TORSDOF 12
REMARK  Name = ../refined-set-2016/3uxk/3uxk_pocket.pdb
REMARK  166 active torsions:
REMARK  status: ('A' for Active; 'I' for Inactive)
REMARK    1  A    between atoms: _1  and  _3
REMARK    2  A    between atoms: _3  and  _4
REMARK    3  A    between atoms: _3  and  _6
REMARK    4  A    between atoms: _6  and  _7
REMARK    5  A    between atoms: _11  and  _12
REMARK    6  A    between atoms: _17  and  _19
REMARK    7  A    between atoms: _19  and  _20
REMARK    8  A    between atoms: _19  and  _22
REMARK    9  A    between atoms: _25  and  _27
REMARK   10  A    between atoms: _27  and  _28
REMARK   11  A    between atoms: _27  and  _30
REMARK   12  A    between atoms: _30  and  _31
REMARK   13  A    between atoms: _36  and  _38
REMARK   14  A    between atoms: _38  and  _39
REMARK   15  A    between atoms: _38  and  _41
REMARK   16  A    between atoms: _41  and  _42
REMARK   17  A    between atoms: _45  and  _47
REMARK   18  A    between atoms: _47  and  _48
REMARK   19  A    between atoms: _51  and  _53
REMARK   20  A    between atoms: _53  and  _54
REMARK   21  A    between atoms: _53  and  _56
REMARK   22  A    between atoms: _59  and  _61
REMARK   23  A    between atoms: _61  and  _62
REMARK   24  A    between atoms: _64  and  _66
REMARK   25  A    between atoms: _66  and  _67
REMARK   26  A    between atoms: _66  and  _69
REMARK   27  A    between atoms: _69  and  _70
REMARK   28  A    between atoms: _73  and  _75
REMARK   29  A    between atoms: _75  and  _76
REMARK   30  A    between atoms: _75  and  _78
REMARK   31  A    between atoms: _81  and  _83
REMARK   32  A    between atoms: _83  and  _84
REMARK   33  A    between atoms: _83  and  _86
REMARK   34  A    between atoms: _86  and  _87
REMARK   35  A    between atoms: _90  and  _92
REMARK   36  A    between atoms: _92  and  _93
REMARK   37  A    between atoms: _92  and  _95
REMARK   38  A    between atoms: _95  and  _96
REMARK   39  A    between atoms: _102  and  _104
REMARK   40  A    between atoms: _104  and  _105
REMARK   41  A    between atoms: _104  and  _107
REMARK   42  A    between atoms: _107  and  _108
REMARK   43  A    between atoms: _113  and  _114
REMARK   44  A    between atoms: _116  and  _118
REMARK   45  A    between atoms: _118  and  _119
REMARK   46  A    between atoms: _118  and  _121
REMARK   47  A    between atoms: _121  and  _122
REMARK   48  A    between atoms: _127  and  _128
REMARK   49  A    between atoms: _130  and  _132
REMARK   50  A    between atoms: _132  and  _133
REMARK   51  A    between atoms: _132  and  _135
REMARK   52  A    between atoms: _135  and  _136
REMARK   53  A    between atoms: _138  and  _140
REMARK   54  A    between atoms: _140  and  _141
REMARK   55  A    between atoms: _140  and  _143
REMARK   56  A    between atoms: _143  and  _144
REMARK   57  A    between atoms: _149  and  _151
REMARK   58  A    between atoms: _151  and  _152
REMARK   59  A    between atoms: _151  and  _154
REMARK   60  A    between atoms: _154  and  _155
REMARK   61  A    between atoms: _157  and  _159
REMARK   62  A    between atoms: _159  and  _160
REMARK   63  A    between atoms: _159  and  _162
REMARK   64  A    between atoms: _162  and  _163
REMARK   65  A    between atoms: _163  and  _164
REMARK   66  A    between atoms: _164  and  _165
REMARK   67  A    between atoms: _165  and  _166
REMARK   68  A    between atoms: _170  and  _172
REMARK   69  A    between atoms: _172  and  _173
REMARK   70  A    between atoms: _172  and  _175
REMARK   71  A    between atoms: _175  and  _176
REMARK   72  A    between atoms: _179  and  _181
REMARK   73  A    between atoms: _181  and  _182
REMARK   74  A    between atoms: _181  and  _184
REMARK   75  A    between atoms: _184  and  _185
REMARK   76  A    between atoms: _185  and  _186
REMARK   77  A    between atoms: _186  and  _187
REMARK   78  A    between atoms: _187  and  _188
REMARK   79  A    between atoms: _192  and  _194
REMARK   80  A    between atoms: _194  and  _195
REMARK   81  A    between atoms: _194  and  _197
REMARK   82  A    between atoms: _197  and  _198
REMARK   83  A    between atoms: _201  and  _203
REMARK   84  A    between atoms: _203  and  _204
REMARK   85  A    between atoms: _203  and  _206
REMARK   86  A    between atoms: _206  and  _207
REMARK   87  A    between atoms: _212  and  _213
REMARK   88  A    between atoms: _215  and  _217
REMARK   89  A    between atoms: _217  and  _218
REMARK   90  A    between atoms: _217  and  _220
REMARK   91  A    between atoms: _220  and  _221
REMARK   92  A    between atoms: _226  and  _228
REMARK   93  A    between atoms: _228  and  _229
REMARK   94  A    between atoms: _228  and  _231
REMARK   95  A    between atoms: _231  and  _232
REMARK   96  A    between atoms: _232  and  _233
REMARK   97  A    between atoms: _238  and  _240
REMARK   98  A    between atoms: _240  and  _241
REMARK   99  A    between atoms: _240  and  _243
REMARK  100  A    between atoms: _243  and  _244
REMARK  101  A    between atoms: _254  and  _256
REMARK  102  A    between atoms: _256  and  _257
REMARK  103  A    between atoms: _256  and  _259
REMARK  104  A    between atoms: _259  and  _260
REMARK  105  A    between atoms: _260  and  _261
REMARK  106  A    between atoms: _261  and  _262
REMARK  107  A    between atoms: _262  and  MG_396
REMARK  108  A    between atoms: _264  and  _266
REMARK  109  A    between atoms: _266  and  _267
REMARK  110  A    between atoms: _266  and  _269
REMARK  111  A    between atoms: _269  and  _270
REMARK  112  A    between atoms: _270  and  _271
REMARK  113  A    between atoms: _274  and  _276
REMARK  114  A    between atoms: _276  and  _277
REMARK  115  A    between atoms: _276  and  _279
REMARK  116  A    between atoms: _279  and  _280
REMARK  117  A    between atoms: _280  and  _281
REMARK  118  A    between atoms: _286  and  _288
REMARK  119  A    between atoms: _288  and  _289
REMARK  120  A    between atoms: _288  and  _291
REMARK  121  A    between atoms: _291  and  _292
REMARK  122  A    between atoms: _292  and  _293
REMARK  123  A    between atoms: _296  and  _298
REMARK  124  A    between atoms: _298  and  _299
REMARK  125  A    between atoms: _298  and  _301
REMARK  126  A    between atoms: _301  and  _302
REMARK  127  A    between atoms: _307  and  _309
REMARK  128  A    between atoms: _309  and  _310
REMARK  129  A    between atoms: _309  and  _312
REMARK  130  A    between atoms: _312  and  _313
REMARK  131  A    between atoms: _313  and  _314
REMARK  132  A    between atoms: _316  and  _318
REMARK  133  A    between atoms: _318  and  _319
REMARK  134  A    between atoms: _318  and  _321
REMARK  135  A    between atoms: _321  and  _322
REMARK  136  A    between atoms: _325  and  _327
REMARK  137  A    between atoms: _327  and  _328
REMARK  138  A    between atoms: _327  and  _330
REMARK  139  A    between atoms: _330  and  _331
REMARK  140  A    between atoms: _333  and  _335
REMARK  141  A    between atoms: _335  and  _336
REMARK  142  A    between atoms: _335  and  _338
REMARK  143  A    between atoms: _338  and  _339
REMARK  144  A    between atoms: _344  and  _346
REMARK  145  A    between atoms: _346  and  _347
REMARK  146  A    between atoms: _346  and  _349
REMARK  147  A    between atoms: _349  and  _350
REMARK  148  A    between atoms: _353  and  _355
REMARK  149  A    between atoms: _355  and  _356
REMARK  150  A    between atoms: _355  and  _358
REMARK  151  A    between atoms: _358  and  _359
REMARK  152  A    between atoms: _359  and  _360
REMARK  153  A    between atoms: _363  and  _365
REMARK  154  A    between atoms: _365  and  _366
REMARK  155  A    between atoms: _365  and  _368
REMARK  156  A    between atoms: _368  and  _369
REMARK  157  A    between atoms: _372  and  _374
REMARK  158  A    between atoms: _374  and  _375
REMARK  159  A    between atoms: _374  and  _377
REMARK  160  A    between atoms: _377  and  _378
REMARK  161  A    between atoms: _381  and  _383
REMARK  162  A    between atoms: _383  and  _384
REMARK  163  A    between atoms: _383  and  _386
REMARK  164  A    between atoms: _386  and  _387
REMARK  165  A    between atoms: _390  and  _392
REMARK  166  A    between atoms: _392  and  _393
REMARK                            x       y       z     vdW  Elec       q    Type
REMARK                         _______ _______ _______ _____ _____    ______ ____
ROOT
ATOM      1  CA  GLU A   1      45.993 -60.344  19.615  0.00  0.00    +0.134 C 
ENDROOT
BRANCH   1   2
ATOM      2  N   GLU A   1      45.580 -61.532  18.891  0.00  0.00    -0.239 NA
ATOM      3  H   GLU A   1      45.629 -61.536  17.852  0.00  0.00    +0.142 HD
ENDBRANCH   1   2
BRANCH   1   4
ATOM      4  C   GLU A   1      44.753 -59.527  19.956  0.00  0.00    +0.224 C 
ATOM      5  O   GLU A   1      44.006 -59.084  19.066  0.00  0.00    -0.287 OA
ENDBRANCH   1   4
BRANCH   1   6
ATOM      6  CB  GLU A   1      46.982 -59.474  18.836  0.00  0.00    +0.037 C 
BRANCH   6   7
ATOM      7  CG  GLU A   1      47.378 -58.240  19.664  0.00  0.00    +0.116 C 
BRANCH   7   8
ATOM      8  CD  GLU A   1      48.343 -57.304  18.947  0.00  0.00    +0.365 C 
ATOM      9  OE2 GLU A   1      49.141 -56.617  19.629  0.00  0.00    -0.246 OA
ATOM     10  OE1 GLU A   1      48.269 -57.228  17.702  0.00  0.00    -0.246 OA
ENDBRANCH   7   8
ENDBRANCH   6   7
ENDBRANCH   1   6
TORSDOF 5
REMARK  Name = ../refined-set-2016/3uxk/3uxk_pocket.pdb
REMARK  166 active torsions:
REMARK  status: ('A' for Active; 'I' for Inactive)
REMARK    1  A    between atoms: _1  and  _3
REMARK    2  A    between atoms: _3  and  _4
REMARK    3  A    between atoms: _3  and  _6
REMARK    4  A    between atoms: _6  and  _7
REMARK    5  A    between atoms: _11  and  _12
REMARK    6  A    between atoms: _17  and  _19
REMARK    7  A    between atoms: _19  and  _20
REMARK    8  A    between atoms: _19  and  _22
REMARK    9  A    between atoms: _25  and  _27
REMARK   10  A    between atoms: _27  and  _28
REMARK   11  A    between atoms: _27  and  _30
REMARK   12  A    between atoms: _30  and  _31
REMARK   13  A    between atoms: _36  and  _38
REMARK   14  A    between atoms: _38  and  _39
REMARK   15  A    between atoms: _38  and  _41
REMARK   16  A    between atoms: _41  and  _42
REMARK   17  A    between atoms: _45  and  _47
REMARK   18  A    between atoms: _47  and  _48
REMARK   19  A    between atoms: _51  and  _53
REMARK   20  A    between atoms: _53  and  _54
REMARK   21  A    between atoms: _53  and  _56
REMARK   22  A    between atoms: _59  and  _61
REMARK   23  A    between atoms: _61  and  _62
REMARK   24  A    between atoms: _64  and  _66
REMARK   25  A    between atoms: _66  and  _67
REMARK   26  A    between atoms: _66  and  _69
REMARK   27  A    between atoms: _69  and  _70
REMARK   28  A    between atoms: _73  and  _75
REMARK   29  A    between atoms: _75  and  _76
REMARK   30  A    between atoms: _75  and  _78
REMARK   31  A    between atoms: _81  and  _83
REMARK   32  A    between atoms: _83  and  _84
REMARK   33  A    between atoms: _83  and  _86
REMARK   34  A    between atoms: _86  and  _87
REMARK   35  A    between atoms: _90  and  _92
REMARK   36  A    between atoms: _92  and  _93
REMARK   37  A    between atoms: _92  and  _95
REMARK   38  A    between atoms: _95  and  _96
REMARK   39  A    between atoms: _102  and  _104
REMARK   40  A    between atoms: _104  and  _105
REMARK   41  A    between atoms: _104  and  _107
REMARK   42  A    between atoms: _107  and  _108
REMARK   43  A    between atoms: _113  and  _114
REMARK   44  A    between atoms: _116  and  _118
REMARK   45  A    between atoms: _118  and  _119
REMARK   46  A    between atoms: _118  and  _121
REMARK   47  A    between atoms: _121  and  _122
REMARK   48  A    between atoms: _127  and  _128
REMARK   49  A    between atoms: _130  and  _132
REMARK   50  A    between atoms: _132  and  _133
REMARK   51  A    between atoms: _132  and  _135
REMARK   52  A    between atoms: _135  and  _136
REMARK   53  A    between atoms: _138  and  _140
REMARK   54  A    between atoms: _140  and  _141
REMARK   55  A    between atoms: _140  and  _143
REMARK   56  A    between atoms: _143  and  _144
REMARK   57  A    between atoms: _149  and  _151
REMARK   58  A    between atoms: _151  and  _152
REMARK   59  A    between atoms: _151  and  _154
REMARK   60  A    between atoms: _154  and  _155
REMARK   61  A    between atoms: _157  and  _159
REMARK   62  A    between atoms: _159  and  _160
REMARK   63  A    between atoms: _159  and  _162
REMARK   64  A    between atoms: _162  and  _163
REMARK   65  A    between atoms: _163  and  _164
REMARK   66  A    between atoms: _164  and  _165
REMARK   67  A    between atoms: _165  and  _166
REMARK   68  A    between atoms: _170  and  _172
REMARK   69  A    between atoms: _172  and  _173
REMARK   70  A    between atoms: _172  and  _175
REMARK   71  A    between atoms: _175  and  _176
REMARK   72  A    between atoms: _179  and  _181
REMARK   73  A    between atoms: _181  and  _182
REMARK   74  A    between atoms: _181  and  _184
REMARK   75  A    between atoms: _184  and  _185
REMARK   76  A    between atoms: _185  and  _186
REMARK   77  A    between atoms: _186  and  _187
REMARK   78  A    between atoms: _187  and  _188
REMARK   79  A    between atoms: _192  and  _194
REMARK   80  A    between atoms: _194  and  _195
REMARK   81  A    between atoms: _194  and  _197
REMARK   82  A    between atoms: _197  and  _198
REMARK   83  A    between atoms: _201  and  _203
REMARK   84  A    between atoms: _203  and  _204
REMARK   85  A    between atoms: _203  and  _206
REMARK   86  A    between atoms: _206  and  _207
REMARK   87  A    between atoms: _212  and  _213
REMARK   88  A    between atoms: _215  and  _217
REMARK   89  A    between atoms: _217  and  _218
REMARK   90  A    between atoms: _217  and  _220
REMARK   91  A    between atoms: _220  and  _221
REMARK   92  A    between atoms: _226  and  _228
REMARK   93  A    between atoms: _228  and  _229
REMARK   94  A    between atoms: _228  and  _231
REMARK   95  A    between atoms: _231  and  _232
REMARK   96  A    between atoms: _232  and  _233
REMARK   97  A    between atoms: _238  and  _240
REMARK   98  A    between atoms: _240  and  _241
REMARK   99  A    between atoms: _240  and  _243
REMARK  100  A    between atoms: _243  and  _244
REMARK  101  A    between atoms: _254  and  _256
REMARK  102  A    between atoms: _256  and  _257
REMARK  103  A    between atoms: _256  and  _259
REMARK  104  A    between atoms: _259  and  _260
REMARK  105  A    between atoms: _260  and  _261
REMARK  106  A    between atoms: _261  and  _262
REMARK  107  A    between atoms: _262  and  MG_396
REMARK  108  A    between atoms: _264  and  _266
REMARK  109  A    between atoms: _266  and  _267
REMARK  110  A    between atoms: _266  and  _269
REMARK  111  A    between atoms: _269  and  _270
REMARK  112  A    between atoms: _270  and  _271
REMARK  113  A    between atoms: _274  and  _276
REMARK  114  A    between atoms: _276  and  _277
REMARK  115  A    between atoms: _276  and  _279
REMARK  116  A    between atoms: _279  and  _280
REMARK  117  A    between atoms: _280  and  _281
REMARK  118  A    between atoms: _286  and  _288
REMARK  119  A    between atoms: _288  and  _289
REMARK  120  A    between atoms: _288  and  _291
REMARK  121  A    between atoms: _291  and  _292
REMARK  122  A    between atoms: _292  and  _293
REMARK  123  A    between atoms: _296  and  _298
REMARK  124  A    between atoms: _298  and  _299
REMARK  125  A    between atoms: _298  and  _301
REMARK  126  A    between atoms: _301  and  _302
REMARK  127  A    between atoms: _307  and  _309
REMARK  128  A    between atoms: _309  and  _310
REMARK  129  A    between atoms: _309  and  _312
REMARK  130  A    between atoms: _312  and  _313
REMARK  131  A    between atoms: _313  and  _314
REMARK  132  A    between atoms: _316  and  _318
REMARK  133  A    between atoms: _318  and  _319
REMARK  134  A    between atoms: _318  and  _321
REMARK  135  A    between atoms: _321  and  _322
REMARK  136  A    between atoms: _325  and  _327
REMARK  137  A    between atoms: _327  and  _328
REMARK  138  A    between atoms: _327  and  _330
REMARK  139  A    between atoms: _330  and  _331
REMARK  140  A    between atoms: _333  and  _335
REMARK  141  A    between atoms: _335  and  _336
REMARK  142  A    between atoms: _335  and  _338
REMARK  143  A    between atoms: _338  and  _339
REMARK  144  A    between atoms: _344  and  _346
REMARK  145  A    between atoms: _346  and  _347
REMARK  146  A    between atoms: _346  and  _349
REMARK  147  A    between atoms: _349  and  _350
REMARK  148  A    between atoms: _353  and  _355
REMARK  149  A    between atoms: _355  and  _356
REMARK  150  A    between atoms: _355  and  _358
REMARK  151  A    between atoms: _358  and  _359
REMARK  152  A    between atoms: _359  and  _360
REMARK  153  A    between atoms: _363  and  _365
REMARK  154  A    between atoms: _365  and  _366
REMARK  155  A    between atoms: _365  and  _368
REMARK  156  A    between atoms: _368  and  _369
REMARK  157  A    between atoms: _372  and  _374
REMARK  158  A    between atoms: _374  and  _375
REMARK  159  A    between atoms: _374  and  _377
REMARK  160  A    between atoms: _377  and  _378
REMARK  161  A    between atoms: _381  and  _383
REMARK  162  A    between atoms: _383  and  _384
REMARK  163  A    between atoms: _383  and  _386
REMARK  164  A    between atoms: _386  and  _387
REMARK  165  A    between atoms: _390  and  _392
REMARK  166  A    between atoms: _392  and  _393
REMARK                            x       y       z     vdW  Elec       q    Type
REMARK                         _______ _______ _______ _____ _____    ______ ____
ROOT
ATOM      1  CA  LEU A   1      44.192 -54.799  21.219  0.00  0.00    +0.133 C 
ENDROOT
BRANCH   1   2
ATOM      2  N   LEU A   1      43.886 -56.205  21.048  0.00  0.00    -0.239 NA
ATOM      3  H   LEU A   1      43.516 -56.532  20.133  0.00  0.00    +0.142 HD
ENDBRANCH   1   2
BRANCH   1   4
ATOM      4  C   LEU A   1      43.053 -54.056  20.549  0.00  0.00    +0.224 C 
ATOM      5  O   LEU A   1      42.967 -53.995  19.323  0.00  0.00    -0.287 OA
ENDBRANCH   1   4
BRANCH   1   6
ATOM      6  CB  LEU A   1      45.553 -54.463  20.609  0.00  0.00    +0.025 C 
BRANCH   6   7
ATOM      7  CG  LEU A   1      46.290 -53.272  21.244  0.00  0.00    +0.002 C 
ATOM      8  CD2 LEU A   1      45.563 -51.953  20.993  0.00  0.00    +0.000 C 
ATOM      9  CD1 LEU A   1      47.712 -53.179  20.720  0.00  0.00    +0.000 C 
ENDBRANCH   6   7
ENDBRANCH   1   6
TORSDOF 4
REMARK  Name = ../refined-set-2016/3uxk/3uxk_pocket.pdb
REMARK  166 active torsions:
REMARK  status: ('A' for Active; 'I' for Inactive)
REMARK    1  A    between atoms: _1  and  _3
REMARK    2  A    between atoms: _3  and  _4
REMARK    3  A    between atoms: _3  and  _6
REMARK    4  A    between atoms: _6  and  _7
REMARK    5  A    between atoms: _11  and  _12
REMARK    6  A    between atoms: _17  and  _19
REMARK    7  A    between atoms: _19  and  _20
REMARK    8  A    between atoms: _19  and  _22
REMARK    9  A    between atoms: _25  and  _27
REMARK   10  A    between atoms: _27  and  _28
REMARK   11  A    between atoms: _27  and  _30
REMARK   12  A    between atoms: _30  and  _31
REMARK   13  A    between atoms: _36  and  _38
REMARK   14  A    between atoms: _38  and  _39
REMARK   15  A    between atoms: _38  and  _41
REMARK   16  A    between atoms: _41  and  _42
REMARK   17  A    between atoms: _45  and  _47
REMARK   18  A    between atoms: _47  and  _48
REMARK   19  A    between atoms: _51  and  _53
REMARK   20  A    between atoms: _53  and  _54
REMARK   21  A    between atoms: _53  and  _56
REMARK   22  A    between atoms: _59  and  _61
REMARK   23  A    between atoms: _61  and  _62
REMARK   24  A    between atoms: _64  and  _66
REMARK   25  A    between atoms: _66  and  _67
REMARK   26  A    between atoms: _66  and  _69
REMARK   27  A    between atoms: _69  and  _70
REMARK   28  A    between atoms: _73  and  _75
REMARK   29  A    between atoms: _75  and  _76
REMARK   30  A    between atoms: _75  and  _78
REMARK   31  A    between atoms: _81  and  _83
REMARK   32  A    between atoms: _83  and  _84
REMARK   33  A    between atoms: _83  and  _86
REMARK   34  A    between atoms: _86  and  _87
REMARK   35  A    between atoms: _90  and  _92
REMARK   36  A    between atoms: _92  and  _93
REMARK   37  A    between atoms: _92  and  _95
REMARK   38  A    between atoms: _95  and  _96
REMARK   39  A    between atoms: _102  and  _104
REMARK   40  A    between atoms: _104  and  _105
REMARK   41  A    between atoms: _104  and  _107
REMARK   42  A    between atoms: _107  and  _108
REMARK   43  A    between atoms: _113  and  _114
REMARK   44  A    between atoms: _116  and  _118
REMARK   45  A    between atoms: _118  and  _119
REMARK   46  A    between atoms: _118  and  _121
REMARK   47  A    between atoms: _121  and  _122
REMARK   48  A    between atoms: _127  and  _128
REMARK   49  A    between atoms: _130  and  _132
REMARK   50  A    between atoms: _132  and  _133
REMARK   51  A    between atoms: _132  and  _135
REMARK   52  A    between atoms: _135  and  _136
REMARK   53  A    between atoms: _138  and  _140
REMARK   54  A    between atoms: _140  and  _141
REMARK   55  A    between atoms: _140  and  _143
REMARK   56  A    between atoms: _143  and  _144
REMARK   57  A    between atoms: _149  and  _151
REMARK   58  A    between atoms: _151  and  _152
REMARK   59  A    between atoms: _151  and  _154
REMARK   60  A    between atoms: _154  and  _155
REMARK   61  A    between atoms: _157  and  _159
REMARK   62  A    between atoms: _159  and  _160
REMARK   63  A    between atoms: _159  and  _162
REMARK   64  A    between atoms: _162  and  _163
REMARK   65  A    between atoms: _163  and  _164
REMARK   66  A    between atoms: _164  and  _165
REMARK   67  A    between atoms: _165  and  _166
REMARK   68  A    between atoms: _170  and  _172
REMARK   69  A    between atoms: _172  and  _173
REMARK   70  A    between atoms: _172  and  _175
REMARK   71  A    between atoms: _175  and  _176
REMARK   72  A    between atoms: _179  and  _181
REMARK   73  A    between atoms: _181  and  _182
REMARK   74  A    between atoms: _181  and  _184
REMARK   75  A    between atoms: _184  and  _185
REMARK   76  A    between atoms: _185  and  _186
REMARK   77  A    between atoms: _186  and  _187
REMARK   78  A    between atoms: _187  and  _188
REMARK   79  A    between atoms: _192  and  _194
REMARK   80  A    between atoms: _194  and  _195
REMARK   81  A    between atoms: _194  and  _197
REMARK   82  A    between atoms: _197  and  _198
REMARK   83  A    between atoms: _201  and  _203
REMARK   84  A    between atoms: _203  and  _204
REMARK   85  A    between atoms: _203  and  _206
REMARK   86  A    between atoms: _206  and  _207
REMARK   87  A    between atoms: _212  and  _213
REMARK   88  A    between atoms: _215  and  _217
REMARK   89  A    between atoms: _217  and  _218
REMARK   90  A    between atoms: _217  and  _220
REMARK   91  A    between atoms: _220  and  _221
REMARK   92  A    between atoms: _226  and  _228
REMARK   93  A    between atoms: _228  and  _229
REMARK   94  A    between atoms: _228  and  _231
REMARK   95  A    between atoms: _231  and  _232
REMARK   96  A    between atoms: _232  and  _233
REMARK   97  A    between atoms: _238  and  _240
REMARK   98  A    between atoms: _240  and  _241
REMARK   99  A    between atoms: _240  and  _243
REMARK  100  A    between atoms: _243  and  _244
REMARK  101  A    between atoms: _254  and  _256
REMARK  102  A    between atoms: _256  and  _257
REMARK  103  A    between atoms: _256  and  _259
REMARK  104  A    between atoms: _259  and  _260
REMARK  105  A    between atoms: _260  and  _261
REMARK  106  A    between atoms: _261  and  _262
REMARK  107  A    between atoms: _262  and  MG_396
REMARK  108  A    between atoms: _264  and  _266
REMARK  109  A    between atoms: _266  and  _267
REMARK  110  A    between atoms: _266  and  _269
REMARK  111  A    between atoms: _269  and  _270
REMARK  112  A    between atoms: _270  and  _271
REMARK  113  A    between atoms: _274  and  _276
REMARK  114  A    between atoms: _276  and  _277
REMARK  115  A    between atoms: _276  and  _279
REMARK  116  A    between atoms: _279  and  _280
REMARK  117  A    between atoms: _280  and  _281
REMARK  118  A    between atoms: _286  and  _288
REMARK  119  A    between atoms: _288  and  _289
REMARK  120  A    between atoms: _288  and  _291
REMARK  121  A    between atoms: _291  and  _292
REMARK  122  A    between atoms: _292  and  _293
REMARK  123  A    between atoms: _296  and  _298
REMARK  124  A    between atoms: _298  and  _299
REMARK  125  A    between atoms: _298  and  _301
REMARK  126  A    between atoms: _301  and  _302
REMARK  127  A    between atoms: _307  and  _309
REMARK  128  A    between atoms: _309  and  _310
REMARK  129  A    between atoms: _309  and  _312
REMARK  130  A    between atoms: _312  and  _313
REMARK  131  A    between atoms: _313  and  _314
REMARK  132  A    between atoms: _316  and  _318
REMARK  133  A    between atoms: _318  and  _319
REMARK  134  A    between atoms: _318  and  _321
REMARK  135  A    between atoms: _321  and  _322
REMARK  136  A    between atoms: _325  and  _327
REMARK  137  A    between atoms: _327  and  _328
REMARK  138  A    between atoms: _327  and  _330
REMARK  139  A    between atoms: _330  and  _331
REMARK  140  A    between atoms: _333  and  _335
REMARK  141  A    between atoms: _335  and  _336
REMARK  142  A    between atoms: _335  and  _338
REMARK  143  A    between atoms: _338  and  _339
REMARK  144  A    between atoms: _344  and  _346
REMARK  145  A    between atoms: _346  and  _347
REMARK  146  A    between atoms: _346  and  _349
REMARK  147  A    between atoms: _349  and  _350
REMARK  148  A    between atoms: _353  and  _355
REMARK  149  A    between atoms: _355  and  _356
REMARK  150  A    between atoms: _355  and  _358
REMARK  151  A    between atoms: _358  and  _359
REMARK  152  A    between atoms: _359  and  _360
REMARK  153  A    between atoms: _363  and  _365
REMARK  154  A    between atoms: _365  and  _366
REMARK  155  A    between atoms: _365  and  _368
REMARK  156  A    between atoms: _368  and  _369
REMARK  157  A    between atoms: _372  and  _374
REMARK  158  A    between atoms: _374  and  _375
REMARK  159  A    between atoms: _374  and  _377
REMARK  160  A    between atoms: _377  and  _378
REMARK  161  A    between atoms: _381  and  _383
REMARK  162  A    between atoms: _383  and  _384
REMARK  163  A    between atoms: _383  and  _386
REMARK  164  A    between atoms: _386  and  _387
REMARK  165  A    between atoms: _390  and  _392
REMARK  166  A    between atoms: _392  and  _393
REMARK                            x       y       z     vdW  Elec       q    Type
REMARK                         _______ _______ _______ _____ _____    ______ ____
ROOT
ATOM      1  CA  LEU A   1      41.816 -50.097  18.561  0.00  0.00    +0.133 C 
ENDROOT
BRANCH   1   2
ATOM      2  N   LEU A   1      41.645 -51.427  19.143  0.00  0.00    -0.239 NA
ATOM      3  H   LEU A   1      42.062 -52.250  18.664  0.00  0.00    +0.142 HD
ENDBRANCH   1   2
BRANCH   1   4
ATOM      4  C   LEU A   1      40.511 -49.444  18.124  0.00  0.00    +0.224 C 
ATOM      5  O   LEU A   1      40.386 -48.225  18.216  0.00  0.00    -0.287 OA
ENDBRANCH   1   4
BRANCH   1   6
ATOM      6  CB  LEU A   1      42.744 -50.136  17.343  0.00  0.00    +0.025 C 
BRANCH   6   7
ATOM      7  CG  LEU A   1      44.248 -50.244  17.514  0.00  0.00    +0.002 C 
ATOM      8  CD2 LEU A   1      44.787 -49.198  18.476  0.00  0.00    +0.000 C 
ATOM      9  CD1 LEU A   1      44.833 -50.070  16.125  0.00  0.00    +0.000 C 
ENDBRANCH   6   7
ENDBRANCH   1   6
TORSDOF 4
REMARK  Name = ../refined-set-2016/3uxk/3uxk_pocket.pdb
REMARK  166 active torsions:
REMARK  status: ('A' for Active; 'I' for Inactive)
REMARK    1  A    between atoms: _1  and  _3
REMARK    2  A    between atoms: _3  and  _4
REMARK    3  A    between atoms: _3  and  _6
REMARK    4  A    between atoms: _6  and  _7
REMARK    5  A    between atoms: _11  and  _12
REMARK    6  A    between atoms: _17  and  _19
REMARK    7  A    between atoms: _19  and  _20
REMARK    8  A    between atoms: _19  and  _22
REMARK    9  A    between atoms: _25  and  _27
REMARK   10  A    between atoms: _27  and  _28
REMARK   11  A    between atoms: _27  and  _30
REMARK   12  A    between atoms: _30  and  _31
REMARK   13  A    between atoms: _36  and  _38
REMARK   14  A    between atoms: _38  and  _39
REMARK   15  A    between atoms: _38  and  _41
REMARK   16  A    between atoms: _41  and  _42
REMARK   17  A    between atoms: _45  and  _47
REMARK   18  A    between atoms: _47  and  _48
REMARK   19  A    between atoms: _51  and  _53
REMARK   20  A    between atoms: _53  and  _54
REMARK   21  A    between atoms: _53  and  _56
REMARK   22  A    between atoms: _59  and  _61
REMARK   23  A    between atoms: _61  and  _62
REMARK   24  A    between atoms: _64  and  _66
REMARK   25  A    between atoms: _66  and  _67
REMARK   26  A    between atoms: _66  and  _69
REMARK   27  A    between atoms: _69  and  _70
REMARK   28  A    between atoms: _73  and  _75
REMARK   29  A    between atoms: _75  and  _76
REMARK   30  A    between atoms: _75  and  _78
REMARK   31  A    between atoms: _81  and  _83
REMARK   32  A    between atoms: _83  and  _84
REMARK   33  A    between atoms: _83  and  _86
REMARK   34  A    between atoms: _86  and  _87
REMARK   35  A    between atoms: _90  and  _92
REMARK   36  A    between atoms: _92  and  _93
REMARK   37  A    between atoms: _92  and  _95
REMARK   38  A    between atoms: _95  and  _96
REMARK   39  A    between atoms: _102  and  _104
REMARK   40  A    between atoms: _104  and  _105
REMARK   41  A    between atoms: _104  and  _107
REMARK   42  A    between atoms: _107  and  _108
REMARK   43  A    between atoms: _113  and  _114
REMARK   44  A    between atoms: _116  and  _118
REMARK   45  A    between atoms: _118  and  _119
REMARK   46  A    between atoms: _118  and  _121
REMARK   47  A    between atoms: _121  and  _122
REMARK   48  A    between atoms: _127  and  _128
REMARK   49  A    between atoms: _130  and  _132
REMARK   50  A    between atoms: _132  and  _133
REMARK   51  A    between atoms: _132  and  _135
REMARK   52  A    between atoms: _135  and  _136
REMARK   53  A    between atoms: _138  and  _140
REMARK   54  A    between atoms: _140  and  _141
REMARK   55  A    between atoms: _140  and  _143
REMARK   56  A    between atoms: _143  and  _144
REMARK   57  A    between atoms: _149  and  _151
REMARK   58  A    between atoms: _151  and  _152
REMARK   59  A    between atoms: _151  and  _154
REMARK   60  A    between atoms: _154  and  _155
REMARK   61  A    between atoms: _157  and  _159
REMARK   62  A    between atoms: _159  and  _160
REMARK   63  A    between atoms: _159  and  _162
REMARK   64  A    between atoms: _162  and  _163
REMARK   65  A    between atoms: _163  and  _164
REMARK   66  A    between atoms: _164  and  _165
REMARK   67  A    between atoms: _165  and  _166
REMARK   68  A    between atoms: _170  and  _172
REMARK   69  A    between atoms: _172  and  _173
REMARK   70  A    between atoms: _172  and  _175
REMARK   71  A    between atoms: _175  and  _176
REMARK   72  A    between atoms: _179  and  _181
REMARK   73  A    between atoms: _181  and  _182
REMARK   74  A    between atoms: _181  and  _184
REMARK   75  A    between atoms: _184  and  _185
REMARK   76  A    between atoms: _185  and  _186
REMARK   77  A    between atoms: _186  and  _187
REMARK   78  A    between atoms: _187  and  _188
REMARK   79  A    between atoms: _192  and  _194
REMARK   80  A    between atoms: _194  and  _195
REMARK   81  A    between atoms: _194  and  _197
REMARK   82  A    between atoms: _197  and  _198
REMARK   83  A    between atoms: _201  and  _203
REMARK   84  A    between atoms: _203  and  _204
REMARK   85  A    between atoms: _203  and  _206
REMARK   86  A    between atoms: _206  and  _207
REMARK   87  A    between atoms: _212  and  _213
REMARK   88  A    between atoms: _215  and  _217
REMARK   89  A    between atoms: _217  and  _218
REMARK   90  A    between atoms: _217  and  _220
REMARK   91  A    between atoms: _220  and  _221
REMARK   92  A    between atoms: _226  and  _228
REMARK   93  A    between atoms: _228  and  _229
REMARK   94  A    between atoms: _228  and  _231
REMARK   95  A    between atoms: _231  and  _232
REMARK   96  A    between atoms: _232  and  _233
REMARK   97  A    between atoms: _238  and  _240
REMARK   98  A    between atoms: _240  and  _241
REMARK   99  A    between atoms: _240  and  _243
REMARK  100  A    between atoms: _243  and  _244
REMARK  101  A    between atoms: _254  and  _256
REMARK  102  A    between atoms: _256  and  _257
REMARK  103  A    between atoms: _256  and  _259
REMARK  104  A    between atoms: _259  and  _260
REMARK  105  A    between atoms: _260  and  _261
REMARK  106  A    between atoms: _261  and  _262
REMARK  107  A    between atoms: _262  and  MG_396
REMARK  108  A    between atoms: _264  and  _266
REMARK  109  A    between atoms: _266  and  _267
REMARK  110  A    between atoms: _266  and  _269
REMARK  111  A    between atoms: _269  and  _270
REMARK  112  A    between atoms: _270  and  _271
REMARK  113  A    between atoms: _274  and  _276
REMARK  114  A    between atoms: _276  and  _277
REMARK  115  A    between atoms: _276  and  _279
REMARK  116  A    between atoms: _279  and  _280
REMARK  117  A    between atoms: _280  and  _281
REMARK  118  A    between atoms: _286  and  _288
REMARK  119  A    between atoms: _288  and  _289
REMARK  120  A    between atoms: _288  and  _291
REMARK  121  A    between atoms: _291  and  _292
REMARK  122  A    between atoms: _292  and  _293
REMARK  123  A    between atoms: _296  and  _298
REMARK  124  A    between atoms: _298  and  _299
REMARK  125  A    between atoms: _298  and  _301
REMARK  126  A    between atoms: _301  and  _302
REMARK  127  A    between atoms: _307  and  _309
REMARK  128  A    between atoms: _309  and  _310
REMARK  129  A    between atoms: _309  and  _312
REMARK  130  A    between atoms: _312  and  _313
REMARK  131  A    between atoms: _313  and  _314
REMARK  132  A    between atoms: _316  and  _318
REMARK  133  A    between atoms: _318  and  _319
REMARK  134  A    between atoms: _318  and  _321
REMARK  135  A    between atoms: _321  and  _322
REMARK  136  A    between atoms: _325  and  _327
REMARK  137  A    between atoms: _327  and  _328
REMARK  138  A    between atoms: _327  and  _330
REMARK  139  A    between atoms: _330  and  _331
REMARK  140  A    between atoms: _333  and  _335
REMARK  141  A    between atoms: _335  and  _336
REMARK  142  A    between atoms: _335  and  _338
REMARK  143  A    between atoms: _338  and  _339
REMARK  144  A    between atoms: _344  and  _346
REMARK  145  A    between atoms: _346  and  _347
REMARK  146  A    between atoms: _346  and  _349
REMARK  147  A    between atoms: _349  and  _350
REMARK  148  A    between atoms: _353  and  _355
REMARK  149  A    between atoms: _355  and  _356
REMARK  150  A    between atoms: _355  and  _358
REMARK  151  A    between atoms: _358  and  _359
REMARK  152  A    between atoms: _359  and  _360
REMARK  153  A    between atoms: _363  and  _365
REMARK  154  A    between atoms: _365  and  _366
REMARK  155  A    between atoms: _365  and  _368
REMARK  156  A    between atoms: _368  and  _369
REMARK  157  A    between atoms: _372  and  _374
REMARK  158  A    between atoms: _374  and  _375
REMARK  159  A    between atoms: _374  and  _377
REMARK  160  A    between atoms: _377  and  _378
REMARK  161  A    between atoms: _381  and  _383
REMARK  162  A    between atoms: _383  and  _384
REMARK  163  A    between atoms: _383  and  _386
REMARK  164  A    between atoms: _386  and  _387
REMARK  165  A    between atoms: _390  and  _392
REMARK  166  A    between atoms: _392  and  _393
REMARK                            x       y       z     vdW  Elec       q    Type
REMARK                         _______ _______ _______ _____ _____    ______ ____
ROOT
ATOM      1  C   LEU A   1      54.663 -48.714  11.197  0.00  0.00    +0.238 C 
ATOM      2  O   LEU A   1      54.141 -49.782  10.839  0.00  0.00    -0.274 OA
ATOM      3  N   ALA A   2      54.459 -47.561  10.564  0.00  0.00    -0.298 N 
ATOM      4  H   ALA A   2      54.968 -46.710  10.879  0.00  0.00    +0.150 HD
ENDROOT
BRANCH   3   5
ATOM      5  CA  ALA A   2      53.533 -47.466   9.434  0.00  0.00    +0.137 C 
ATOM      6  CB  ALA A   2      53.282 -46.007   9.090  0.00  0.00    +0.030 C 
BRANCH   5   7
ATOM      7  C   ALA A   2      54.022 -48.238   8.193  0.00  0.00    +0.227 C 
ATOM      8  O   ALA A   2      53.211 -48.675   7.355  0.00  0.00    -0.286 OA
ENDBRANCH   5   7
ENDBRANCH   3   5
BRANCH   1   9
ATOM      9  CA  LEU A   1      55.592 -48.669  12.394  0.00  0.00    +0.145 C 
BRANCH   9  10
ATOM     10  N   LEU A   1      56.808 -47.894  12.090  0.00  0.00    -0.238 NA
ATOM     11  H   LEU A   1      56.873 -46.901  12.393  0.00  0.00    +0.142 HD
ENDBRANCH   9  10
BRANCH   9  12
ATOM     12  CB  LEU A   1      54.858 -48.142  13.639  0.00  0.00    +0.026 C 
BRANCH  12  13
ATOM     13  CG  LEU A   1      55.647 -48.087  14.953  0.00  0.00    +0.002 C 
ATOM     14  CD2 LEU A   1      54.742 -47.694  16.116  0.00  0.00    +0.000 C 
ATOM     15  CD1 LEU A   1      56.305 -49.424  15.226  0.00  0.00    +0.000 C 
ENDBRANCH  12  13
ENDBRANCH   9  12
ENDBRANCH   1   9
TORSDOF 6
REMARK  Name = ../refined-set-2016/3uxk/3uxk_pocket.pdb
REMARK  166 active torsions:
REMARK  status: ('A' for Active; 'I' for Inactive)
REMARK    1  A    between atoms: _1  and  _3
REMARK    2  A    between atoms: _3  and  _4
REMARK    3  A    between atoms: _3  and  _6
REMARK    4  A    between atoms: _6  and  _7
REMARK    5  A    between atoms: _11  and  _12
REMARK    6  A    between atoms: _17  and  _19
REMARK    7  A    between atoms: _19  and  _20
REMARK    8  A    between atoms: _19  and  _22
REMARK    9  A    between atoms: _25  and  _27
REMARK   10  A    between atoms: _27  and  _28
REMARK   11  A    between atoms: _27  and  _30
REMARK   12  A    between atoms: _30  and  _31
REMARK   13  A    between atoms: _36  and  _38
REMARK   14  A    between atoms: _38  and  _39
REMARK   15  A    between atoms: _38  and  _41
REMARK   16  A    between atoms: _41  and  _42
REMARK   17  A    between atoms: _45  and  _47
REMARK   18  A    between atoms: _47  and  _48
REMARK   19  A    between atoms: _51  and  _53
REMARK   20  A    between atoms: _53  and  _54
REMARK   21  A    between atoms: _53  and  _56
REMARK   22  A    between atoms: _59  and  _61
REMARK   23  A    between atoms: _61  and  _62
REMARK   24  A    between atoms: _64  and  _66
REMARK   25  A    between atoms: _66  and  _67
REMARK   26  A    between atoms: _66  and  _69
REMARK   27  A    between atoms: _69  and  _70
REMARK   28  A    between atoms: _73  and  _75
REMARK   29  A    between atoms: _75  and  _76
REMARK   30  A    between atoms: _75  and  _78
REMARK   31  A    between atoms: _81  and  _83
REMARK   32  A    between atoms: _83  and  _84
REMARK   33  A    between atoms: _83  and  _86
REMARK   34  A    between atoms: _86  and  _87
REMARK   35  A    between atoms: _90  and  _92
REMARK   36  A    between atoms: _92  and  _93
REMARK   37  A    between atoms: _92  and  _95
REMARK   38  A    between atoms: _95  and  _96
REMARK   39  A    between atoms: _102  and  _104
REMARK   40  A    between atoms: _104  and  _105
REMARK   41  A    between atoms: _104  and  _107
REMARK   42  A    between atoms: _107  and  _108
REMARK   43  A    between atoms: _113  and  _114
REMARK   44  A    between atoms: _116  and  _118
REMARK   45  A    between atoms: _118  and  _119
REMARK   46  A    between atoms: _118  and  _121
REMARK   47  A    between atoms: _121  and  _122
REMARK   48  A    between atoms: _127  and  _128
REMARK   49  A    between atoms: _130  and  _132
REMARK   50  A    between atoms: _132  and  _133
REMARK   51  A    between atoms: _132  and  _135
REMARK   52  A    between atoms: _135  and  _136
REMARK   53  A    between atoms: _138  and  _140
REMARK   54  A    between atoms: _140  and  _141
REMARK   55  A    between atoms: _140  and  _143
REMARK   56  A    between atoms: _143  and  _144
REMARK   57  A    between atoms: _149  and  _151
REMARK   58  A    between atoms: _151  and  _152
REMARK   59  A    between atoms: _151  and  _154
REMARK   60  A    between atoms: _154  and  _155
REMARK   61  A    between atoms: _157  and  _159
REMARK   62  A    between atoms: _159  and  _160
REMARK   63  A    between atoms: _159  and  _162
REMARK   64  A    between atoms: _162  and  _163
REMARK   65  A    between atoms: _163  and  _164
REMARK   66  A    between atoms: _164  and  _165
REMARK   67  A    between atoms: _165  and  _166
REMARK   68  A    between atoms: _170  and  _172
REMARK   69  A    between atoms: _172  and  _173
REMARK   70  A    between atoms: _172  and  _175
REMARK   71  A    between atoms: _175  and  _176
REMARK   72  A    between atoms: _179  and  _181
REMARK   73  A    between atoms: _181  and  _182
REMARK   74  A    between atoms: _181  and  _184
REMARK   75  A    between atoms: _184  and  _185
REMARK   76  A    between atoms: _185  and  _186
REMARK   77  A    between atoms: _186  and  _187
REMARK   78  A    between atoms: _187  and  _188
REMARK   79  A    between atoms: _192  and  _194
REMARK   80  A    between atoms: _194  and  _195
REMARK   81  A    between atoms: _194  and  _197
REMARK   82  A    between atoms: _197  and  _198
REMARK   83  A    between atoms: _201  and  _203
REMARK   84  A    between atoms: _203  and  _204
REMARK   85  A    between atoms: _203  and  _206
REMARK   86  A    between atoms: _206  and  _207
REMARK   87  A    between atoms: _212  and  _213
REMARK   88  A    between atoms: _215  and  _217
REMARK   89  A    between atoms: _217  and  _218
REMARK   90  A    between atoms: _217  and  _220
REMARK   91  A    between atoms: _220  and  _221
REMARK   92  A    between atoms: _226  and  _228
REMARK   93  A    between atoms: _228  and  _229
REMARK   94  A    between atoms: _228  and  _231
REMARK   95  A    between atoms: _231  and  _232
REMARK   96  A    between atoms: _232  and  _233
REMARK   97  A    between atoms: _238  and  _240
REMARK   98  A    between atoms: _240  and  _241
REMARK   99  A    between atoms: _240  and  _243
REMARK  100  A    between atoms: _243  and  _244
REMARK  101  A    between atoms: _254  and  _256
REMARK  102  A    between atoms: _256  and  _257
REMARK  103  A    between atoms: _256  and  _259
REMARK  104  A    between atoms: _259  and  _260
REMARK  105  A    between atoms: _260  and  _261
REMARK  106  A    between atoms: _261  and  _262
REMARK  107  A    between atoms: _262  and  MG_396
REMARK  108  A    between atoms: _264  and  _266
REMARK  109  A    between atoms: _266  and  _267
REMARK  110  A    between atoms: _266  and  _269
REMARK  111  A    between atoms: _269  and  _270
REMARK  112  A    between atoms: _270  and  _271
REMARK  113  A    between atoms: _274  and  _276
REMARK  114  A    between atoms: _276  and  _277
REMARK  115  A    between atoms: _276  and  _279
REMARK  116  A    between atoms: _279  and  _280
REMARK  117  A    between atoms: _280  and  _281
REMARK  118  A    between atoms: _286  and  _288
REMARK  119  A    between atoms: _288  and  _289
REMARK  120  A    between atoms: _288  and  _291
REMARK  121  A    between atoms: _291  and  _292
REMARK  122  A    between atoms: _292  and  _293
REMARK  123  A    between atoms: _296  and  _298
REMARK  124  A    between atoms: _298  and  _299
REMARK  125  A    between atoms: _298  and  _301
REMARK  126  A    between atoms: _301  and  _302
REMARK  127  A    between atoms: _307  and  _309
REMARK  128  A    between atoms: _309  and  _310
REMARK  129  A    between atoms: _309  and  _312
REMARK  130  A    between atoms: _312  and  _313
REMARK  131  A    between atoms: _313  and  _314
REMARK  132  A    between atoms: _316  and  _318
REMARK  133  A    between atoms: _318  and  _319
REMARK  134  A    between atoms: _318  and  _321
REMARK  135  A    between atoms: _321  and  _322
REMARK  136  A    between atoms: _325  and  _327
REMARK  137  A    between atoms: _327  and  _328
REMARK  138  A    between atoms: _327  and  _330
REMARK  139  A    between atoms: _330  and  _331
REMARK  140  A    between atoms: _333  and  _335
REMARK  141  A    between atoms: _335  and  _336
REMARK  142  A    between atoms: _335  and  _338
REMARK  143  A    between atoms: _338  and  _339
REMARK  144  A    between atoms: _344  and  _346
REMARK  145  A    between atoms: _346  and  _347
REMARK  146  A    between atoms: _346  and  _349
REMARK  147  A    between atoms: _349  and  _350
REMARK  148  A    between atoms: _353  and  _355
REMARK  149  A    between atoms: _355  and  _356
REMARK  150  A    between atoms: _355  and  _358
REMARK  151  A    between atoms: _358  and  _359
REMARK  152  A    between atoms: _359  and  _360
REMARK  153  A    between atoms: _363  and  _365
REMARK  154  A    between atoms: _365  and  _366
REMARK  155  A    between atoms: _365  and  _368
REMARK  156  A    between atoms: _368  and  _369
REMARK  157  A    between atoms: _372  and  _374
REMARK  158  A    between atoms: _374  and  _375
REMARK  159  A    between atoms: _374  and  _377
REMARK  160  A    between atoms: _377  and  _378
REMARK  161  A    between atoms: _381  and  _383
REMARK  162  A    between atoms: _383  and  _384
REMARK  163  A    between atoms: _383  and  _386
REMARK  164  A    between atoms: _386  and  _387
REMARK  165  A    between atoms: _390  and  _392
REMARK  166  A    between atoms: _392  and  _393
REMARK                            x       y       z     vdW  Elec       q    Type
REMARK                         _______ _______ _______ _____ _____    ______ ____
ROOT
ATOM      1  O   HOH     1      50.141 -62.004  17.669  0.00  0.00    +0.000 OA
ENDROOT
TORSDOF 0
REMARK  Name = ../refined-set-2016/3uxk/3uxk_pocket.pdb
REMARK  166 active torsions:
REMARK  status: ('A' for Active; 'I' for Inactive)
REMARK    1  A    between atoms: _1  and  _3
REMARK    2  A    between atoms: _3  and  _4
REMARK    3  A    between atoms: _3  and  _6
REMARK    4  A    between atoms: _6  and  _7
REMARK    5  A    between atoms: _11  and  _12
REMARK    6  A    between atoms: _17  and  _19
REMARK    7  A    between atoms: _19  and  _20
REMARK    8  A    between atoms: _19  and  _22
REMARK    9  A    between atoms: _25  and  _27
REMARK   10  A    between atoms: _27  and  _28
REMARK   11  A    between atoms: _27  and  _30
REMARK   12  A    between atoms: _30  and  _31
REMARK   13  A    between atoms: _36  and  _38
REMARK   14  A    between atoms: _38  and  _39
REMARK   15  A    between atoms: _38  and  _41
REMARK   16  A    between atoms: _41  and  _42
REMARK   17  A    between atoms: _45  and  _47
REMARK   18  A    between atoms: _47  and  _48
REMARK   19  A    between atoms: _51  and  _53
REMARK   20  A    between atoms: _53  and  _54
REMARK   21  A    between atoms: _53  and  _56
REMARK   22  A    between atoms: _59  and  _61
REMARK   23  A    between atoms: _61  and  _62
REMARK   24  A    between atoms: _64  and  _66
REMARK   25  A    between atoms: _66  and  _67
REMARK   26  A    between atoms: _66  and  _69
REMARK   27  A    between atoms: _69  and  _70
REMARK   28  A    between atoms: _73  and  _75
REMARK   29  A    between atoms: _75  and  _76
REMARK   30  A    between atoms: _75  and  _78
REMARK   31  A    between atoms: _81  and  _83
REMARK   32  A    between atoms: _83  and  _84
REMARK   33  A    between atoms: _83  and  _86
REMARK   34  A    between atoms: _86  and  _87
REMARK   35  A    between atoms: _90  and  _92
REMARK   36  A    between atoms: _92  and  _93
REMARK   37  A    between atoms: _92  and  _95
REMARK   38  A    between atoms: _95  and  _96
REMARK   39  A    between atoms: _102  and  _104
REMARK   40  A    between atoms: _104  and  _105
REMARK   41  A    between atoms: _104  and  _107
REMARK   42  A    between atoms: _107  and  _108
REMARK   43  A    between atoms: _113  and  _114
REMARK   44  A    between atoms: _116  and  _118
REMARK   45  A    between atoms: _118  and  _119
REMARK   46  A    between atoms: _118  and  _121
REMARK   47  A    between atoms: _121  and  _122
REMARK   48  A    between atoms: _127  and  _128
REMARK   49  A    between atoms: _130  and  _132
REMARK   50  A    between atoms: _132  and  _133
REMARK   51  A    between atoms: _132  and  _135
REMARK   52  A    between atoms: _135  and  _136
REMARK   53  A    between atoms: _138  and  _140
REMARK   54  A    between atoms: _140  and  _141
REMARK   55  A    between atoms: _140  and  _143
REMARK   56  A    between atoms: _143  and  _144
REMARK   57  A    between atoms: _149  and  _151
REMARK   58  A    between atoms: _151  and  _152
REMARK   59  A    between atoms: _151  and  _154
REMARK   60  A    between atoms: _154  and  _155
REMARK   61  A    between atoms: _157  and  _159
REMARK   62  A    between atoms: _159  and  _160
REMARK   63  A    between atoms: _159  and  _162
REMARK   64  A    between atoms: _162  and  _163
REMARK   65  A    between atoms: _163  and  _164
REMARK   66  A    between atoms: _164  and  _165
REMARK   67  A    between atoms: _165  and  _166
REMARK   68  A    between atoms: _170  and  _172
REMARK   69  A    between atoms: _172  and  _173
REMARK   70  A    between atoms: _172  and  _175
REMARK   71  A    between atoms: _175  and  _176
REMARK   72  A    between atoms: _179  and  _181
REMARK   73  A    between atoms: _181  and  _182
REMARK   74  A    between atoms: _181  and  _184
REMARK   75  A    between atoms: _184  and  _185
REMARK   76  A    between atoms: _185  and  _186
REMARK   77  A    between atoms: _186  and  _187
REMARK   78  A    between atoms: _187  and  _188
REMARK   79  A    between atoms: _192  and  _194
REMARK   80  A    between atoms: _194  and  _195
REMARK   81  A    between atoms: _194  and  _197
REMARK   82  A    between atoms: _197  and  _198
REMARK   83  A    between atoms: _201  and  _203
REMARK   84  A    between atoms: _203  and  _204
REMARK   85  A    between atoms: _203  and  _206
REMARK   86  A    between atoms: _206  and  _207
REMARK   87  A    between atoms: _212  and  _213
REMARK   88  A    between atoms: _215  and  _217
REMARK   89  A    between atoms: _217  and  _218
REMARK   90  A    between atoms: _217  and  _220
REMARK   91  A    between atoms: _220  and  _221
REMARK   92  A    between atoms: _226  and  _228
REMARK   93  A    between atoms: _228  and  _229
REMARK   94  A    between atoms: _228  and  _231
REMARK   95  A    between atoms: _231  and  _232
REMARK   96  A    between atoms: _232  and  _233
REMARK   97  A    between atoms: _238  and  _240
REMARK   98  A    between atoms: _240  and  _241
REMARK   99  A    between atoms: _240  and  _243
REMARK  100  A    between atoms: _243  and  _244
REMARK  101  A    between atoms: _254  and  _256
REMARK  102  A    between atoms: _256  and  _257
REMARK  103  A    between atoms: _256  and  _259
REMARK  104  A    between atoms: _259  and  _260
REMARK  105  A    between atoms: _260  and  _261
REMARK  106  A    between atoms: _261  and  _262
REMARK  107  A    between atoms: _262  and  MG_396
REMARK  108  A    between atoms: _264  and  _266
REMARK  109  A    between atoms: _266  and  _267
REMARK  110  A    between atoms: _266  and  _269
REMARK  111  A    between atoms: _269  and  _270
REMARK  112  A    between atoms: _270  and  _271
REMARK  113  A    between atoms: _274  and  _276
REMARK  114  A    between atoms: _276  and  _277
REMARK  115  A    between atoms: _276  and  _279
REMARK  116  A    between atoms: _279  and  _280
REMARK  117  A    between atoms: _280  and  _281
REMARK  118  A    between atoms: _286  and  _288
REMARK  119  A    between atoms: _288  and  _289
REMARK  120  A    between atoms: _288  and  _291
REMARK  121  A    between atoms: _291  and  _292
REMARK  122  A    between atoms: _292  and  _293
REMARK  123  A    between atoms: _296  and  _298
REMARK  124  A    between atoms: _298  and  _299
REMARK  125  A    between atoms: _298  and  _301
REMARK  126  A    between atoms: _301  and  _302
REMARK  127  A    between atoms: _307  and  _309
REMARK  128  A    between atoms: _309  and  _310
REMARK  129  A    between atoms: _309  and  _312
REMARK  130  A    between atoms: _312  and  _313
REMARK  131  A    between atoms: _313  and  _314
REMARK  132  A    between atoms: _316  and  _318
REMARK  133  A    between atoms: _318  and  _319
REMARK  134  A    between atoms: _318  and  _321
REMARK  135  A    between atoms: _321  and  _322
REMARK  136  A    between atoms: _325  and  _327
REMARK  137  A    between atoms: _327  and  _328
REMARK  138  A    between atoms: _327  and  _330
REMARK  139  A    between atoms: _330  and  _331
REMARK  140  A    between atoms: _333  and  _335
REMARK  141  A    between atoms: _335  and  _336
REMARK  142  A    between atoms: _335  and  _338
REMARK  143  A    between atoms: _338  and  _339
REMARK  144  A    between atoms: _344  and  _346
REMARK  145  A    between atoms: _346  and  _347
REMARK  146  A    between atoms: _346  and  _349
REMARK  147  A    between atoms: _349  and  _350
REMARK  148  A    between atoms: _353  and  _355
REMARK  149  A    between atoms: _355  and  _356
REMARK  150  A    between atoms: _355  and  _358
REMARK  151  A    between atoms: _358  and  _359
REMARK  152  A    between atoms: _359  and  _360
REMARK  153  A    between atoms: _363  and  _365
REMARK  154  A    between atoms: _365  and  _366
REMARK  155  A    between atoms: _365  and  _368
REMARK  156  A    between atoms: _368  and  _369
REMARK  157  A    between atoms: _372  and  _374
REMARK  158  A    between atoms: _374  and  _375
REMARK  159  A    between atoms: _374  and  _377
REMARK  160  A    between atoms: _377  and  _378
REMARK  161  A    between atoms: _381  and  _383
REMARK  162  A    between atoms: _383  and  _384
REMARK  163  A    between atoms: _383  and  _386
REMARK  164  A    between atoms: _386  and  _387
REMARK  165  A    between atoms: _390  and  _392
REMARK  166  A    between atoms: _392  and  _393
REMARK                            x       y       z     vdW  Elec       q    Type
REMARK                         _______ _______ _______ _____ _____    ______ ____
ROOT
ATOM      1  O   HOH     1      48.819 -49.504  25.444  0.00  0.00    +0.000 OA
ENDROOT
TORSDOF 0
REMARK  Name = ../refined-set-2016/3uxk/3uxk_pocket.pdb
REMARK  166 active torsions:
REMARK  status: ('A' for Active; 'I' for Inactive)
REMARK    1  A    between atoms: _1  and  _3
REMARK    2  A    between atoms: _3  and  _4
REMARK    3  A    between atoms: _3  and  _6
REMARK    4  A    between atoms: _6  and  _7
REMARK    5  A    between atoms: _11  and  _12
REMARK    6  A    between atoms: _17  and  _19
REMARK    7  A    between atoms: _19  and  _20
REMARK    8  A    between atoms: _19  and  _22
REMARK    9  A    between atoms: _25  and  _27
REMARK   10  A    between atoms: _27  and  _28
REMARK   11  A    between atoms: _27  and  _30
REMARK   12  A    between atoms: _30  and  _31
REMARK   13  A    between atoms: _36  and  _38
REMARK   14  A    between atoms: _38  and  _39
REMARK   15  A    between atoms: _38  and  _41
REMARK   16  A    between atoms: _41  and  _42
REMARK   17  A    between atoms: _45  and  _47
REMARK   18  A    between atoms: _47  and  _48
REMARK   19  A    between atoms: _51  and  _53
REMARK   20  A    between atoms: _53  and  _54
REMARK   21  A    between atoms: _53  and  _56
REMARK   22  A    between atoms: _59  and  _61
REMARK   23  A    between atoms: _61  and  _62
REMARK   24  A    between atoms: _64  and  _66
REMARK   25  A    between atoms: _66  and  _67
REMARK   26  A    between atoms: _66  and  _69
REMARK   27  A    between atoms: _69  and  _70
REMARK   28  A    between atoms: _73  and  _75
REMARK   29  A    between atoms: _75  and  _76
REMARK   30  A    between atoms: _75  and  _78
REMARK   31  A    between atoms: _81  and  _83
REMARK   32  A    between atoms: _83  and  _84
REMARK   33  A    between atoms: _83  and  _86
REMARK   34  A    between atoms: _86  and  _87
REMARK   35  A    between atoms: _90  and  _92
REMARK   36  A    between atoms: _92  and  _93
REMARK   37  A    between atoms: _92  and  _95
REMARK   38  A    between atoms: _95  and  _96
REMARK   39  A    between atoms: _102  and  _104
REMARK   40  A    between atoms: _104  and  _105
REMARK   41  A    between atoms: _104  and  _107
REMARK   42  A    between atoms: _107  and  _108
REMARK   43  A    between atoms: _113  and  _114
REMARK   44  A    between atoms: _116  and  _118
REMARK   45  A    between atoms: _118  and  _119
REMARK   46  A    between atoms: _118  and  _121
REMARK   47  A    between atoms: _121  and  _122
REMARK   48  A    between atoms: _127  and  _128
REMARK   49  A    between atoms: _130  and  _132
REMARK   50  A    between atoms: _132  and  _133
REMARK   51  A    between atoms: _132  and  _135
REMARK   52  A    between atoms: _135  and  _136
REMARK   53  A    between atoms: _138  and  _140
REMARK   54  A    between atoms: _140  and  _141
REMARK   55  A    between atoms: _140  and  _143
REMARK   56  A    between atoms: _143  and  _144
REMARK   57  A    between atoms: _149  and  _151
REMARK   58  A    between atoms: _151  and  _152
REMARK   59  A    between atoms: _151  and  _154
REMARK   60  A    between atoms: _154  and  _155
REMARK   61  A    between atoms: _157  and  _159
REMARK   62  A    between atoms: _159  and  _160
REMARK   63  A    between atoms: _159  and  _162
REMARK   64  A    between atoms: _162  and  _163
REMARK   65  A    between atoms: _163  and  _164
REMARK   66  A    between atoms: _164  and  _165
REMARK   67  A    between atoms: _165  and  _166
REMARK   68  A    between atoms: _170  and  _172
REMARK   69  A    between atoms: _172  and  _173
REMARK   70  A    between atoms: _172  and  _175
REMARK   71  A    between atoms: _175  and  _176
REMARK   72  A    between atoms: _179  and  _181
REMARK   73  A    between atoms: _181  and  _182
REMARK   74  A    between atoms: _181  and  _184
REMARK   75  A    between atoms: _184  and  _185
REMARK   76  A    between atoms: _185  and  _186
REMARK   77  A    between atoms: _186  and  _187
REMARK   78  A    between atoms: _187  and  _188
REMARK   79  A    between atoms: _192  and  _194
REMARK   80  A    between atoms: _194  and  _195
REMARK   81  A    between atoms: _194  and  _197
REMARK   82  A    between atoms: _197  and  _198
REMARK   83  A    between atoms: _201  and  _203
REMARK   84  A    between atoms: _203  and  _204
REMARK   85  A    between atoms: _203  and  _206
REMARK   86  A    between atoms: _206  and  _207
REMARK   87  A    between atoms: _212  and  _213
REMARK   88  A    between atoms: _215  and  _217
REMARK   89  A    between atoms: _217  and  _218
REMARK   90  A    between atoms: _217  and  _220
REMARK   91  A    between atoms: _220  and  _221
REMARK   92  A    between atoms: _226  and  _228
REMARK   93  A    between atoms: _228  and  _229
REMARK   94  A    between atoms: _228  and  _231
REMARK   95  A    between atoms: _231  and  _232
REMARK   96  A    between atoms: _232  and  _233
REMARK   97  A    between atoms: _238  and  _240
REMARK   98  A    between atoms: _240  and  _241
REMARK   99  A    between atoms: _240  and  _243
REMARK  100  A    between atoms: _243  and  _244
REMARK  101  A    between atoms: _254  and  _256
REMARK  102  A    between atoms: _256  and  _257
REMARK  103  A    between atoms: _256  and  _259
REMARK  104  A    between atoms: _259  and  _260
REMARK  105  A    between atoms: _260  and  _261
REMARK  106  A    between atoms: _261  and  _262
REMARK  107  A    between atoms: _262  and  MG_396
REMARK  108  A    between atoms: _264  and  _266
REMARK  109  A    between atoms: _266  and  _267
REMARK  110  A    between atoms: _266  and  _269
REMARK  111  A    between atoms: _269  and  _270
REMARK  112  A    between atoms: _270  and  _271
REMARK  113  A    between atoms: _274  and  _276
REMARK  114  A    between atoms: _276  and  _277
REMARK  115  A    between atoms: _276  and  _279
REMARK  116  A    between atoms: _279  and  _280
REMARK  117  A    between atoms: _280  and  _281
REMARK  118  A    between atoms: _286  and  _288
REMARK  119  A    between atoms: _288  and  _289
REMARK  120  A    between atoms: _288  and  _291
REMARK  121  A    between atoms: _291  and  _292
REMARK  122  A    between atoms: _292  and  _293
REMARK  123  A    between atoms: _296  and  _298
REMARK  124  A    between atoms: _298  and  _299
REMARK  125  A    between atoms: _298  and  _301
REMARK  126  A    between atoms: _301  and  _302
REMARK  127  A    between atoms: _307  and  _309
REMARK  128  A    between atoms: _309  and  _310
REMARK  129  A    between atoms: _309  and  _312
REMARK  130  A    between atoms: _312  and  _313
REMARK  131  A    between atoms: _313  and  _314
REMARK  132  A    between atoms: _316  and  _318
REMARK  133  A    between atoms: _318  and  _319
REMARK  134  A    between atoms: _318  and  _321
REMARK  135  A    between atoms: _321  and  _322
REMARK  136  A    between atoms: _325  and  _327
REMARK  137  A    between atoms: _327  and  _328
REMARK  138  A    between atoms: _327  and  _330
REMARK  139  A    between atoms: _330  and  _331
REMARK  140  A    between atoms: _333  and  _335
REMARK  141  A    between atoms: _335  and  _336
REMARK  142  A    between atoms: _335  and  _338
REMARK  143  A    between atoms: _338  and  _339
REMARK  144  A    between atoms: _344  and  _346
REMARK  145  A    between atoms: _346  and  _347
REMARK  146  A    between atoms: _346  and  _349
REMARK  147  A    between atoms: _349  and  _350
REMARK  148  A    between atoms: _353  and  _355
REMARK  149  A    between atoms: _355  and  _356
REMARK  150  A    between atoms: _355  and  _358
REMARK  151  A    between atoms: _358  and  _359
REMARK  152  A    between atoms: _359  and  _360
REMARK  153  A    between atoms: _363  and  _365
REMARK  154  A    between atoms: _365  and  _366
REMARK  155  A    between atoms: _365  and  _368
REMARK  156  A    between atoms: _368  and  _369
REMARK  157  A    between atoms: _372  and  _374
REMARK  158  A    between atoms: _374  and  _375
REMARK  159  A    between atoms: _374  and  _377
REMARK  160  A    between atoms: _377  and  _378
REMARK  161  A    between atoms: _381  and  _383
REMARK  162  A    between atoms: _383  and  _384
REMARK  163  A    between atoms: _383  and  _386
REMARK  164  A    between atoms: _386  and  _387
REMARK  165  A    between atoms: _390  and  _392
REMARK  166  A    between atoms: _392  and  _393
REMARK                            x       y       z     vdW  Elec       q    Type
REMARK                         _______ _______ _______ _____ _____    ______ ____
ROOT
ATOM      1  O   HOH     1      55.005 -58.858  14.414  0.00  0.00    +0.000 OA
ENDROOT
TORSDOF 0
REMARK  Name = ../refined-set-2016/3uxk/3uxk_pocket.pdb
REMARK  166 active torsions:
REMARK  status: ('A' for Active; 'I' for Inactive)
REMARK    1  A    between atoms: _1  and  _3
REMARK    2  A    between atoms: _3  and  _4
REMARK    3  A    between atoms: _3  and  _6
REMARK    4  A    between atoms: _6  and  _7
REMARK    5  A    between atoms: _11  and  _12
REMARK    6  A    between atoms: _17  and  _19
REMARK    7  A    between atoms: _19  and  _20
REMARK    8  A    between atoms: _19  and  _22
REMARK    9  A    between atoms: _25  and  _27
REMARK   10  A    between atoms: _27  and  _28
REMARK   11  A    between atoms: _27  and  _30
REMARK   12  A    between atoms: _30  and  _31
REMARK   13  A    between atoms: _36  and  _38
REMARK   14  A    between atoms: _38  and  _39
REMARK   15  A    between atoms: _38  and  _41
REMARK   16  A    between atoms: _41  and  _42
REMARK   17  A    between atoms: _45  and  _47
REMARK   18  A    between atoms: _47  and  _48
REMARK   19  A    between atoms: _51  and  _53
REMARK   20  A    between atoms: _53  and  _54
REMARK   21  A    between atoms: _53  and  _56
REMARK   22  A    between atoms: _59  and  _61
REMARK   23  A    between atoms: _61  and  _62
REMARK   24  A    between atoms: _64  and  _66
REMARK   25  A    between atoms: _66  and  _67
REMARK   26  A    between atoms: _66  and  _69
REMARK   27  A    between atoms: _69  and  _70
REMARK   28  A    between atoms: _73  and  _75
REMARK   29  A    between atoms: _75  and  _76
REMARK   30  A    between atoms: _75  and  _78
REMARK   31  A    between atoms: _81  and  _83
REMARK   32  A    between atoms: _83  and  _84
REMARK   33  A    between atoms: _83  and  _86
REMARK   34  A    between atoms: _86  and  _87
REMARK   35  A    between atoms: _90  and  _92
REMARK   36  A    between atoms: _92  and  _93
REMARK   37  A    between atoms: _92  and  _95
REMARK   38  A    between atoms: _95  and  _96
REMARK   39  A    between atoms: _102  and  _104
REMARK   40  A    between atoms: _104  and  _105
REMARK   41  A    between atoms: _104  and  _107
REMARK   42  A    between atoms: _107  and  _108
REMARK   43  A    between atoms: _113  and  _114
REMARK   44  A    between atoms: _116  and  _118
REMARK   45  A    between atoms: _118  and  _119
REMARK   46  A    between atoms: _118  and  _121
REMARK   47  A    between atoms: _121  and  _122
REMARK   48  A    between atoms: _127  and  _128
REMARK   49  A    between atoms: _130  and  _132
REMARK   50  A    between atoms: _132  and  _133
REMARK   51  A    between atoms: _132  and  _135
REMARK   52  A    between atoms: _135  and  _136
REMARK   53  A    between atoms: _138  and  _140
REMARK   54  A    between atoms: _140  and  _141
REMARK   55  A    between atoms: _140  and  _143
REMARK   56  A    between atoms: _143  and  _144
REMARK   57  A    between atoms: _149  and  _151
REMARK   58  A    between atoms: _151  and  _152
REMARK   59  A    between atoms: _151  and  _154
REMARK   60  A    between atoms: _154  and  _155
REMARK   61  A    between atoms: _157  and  _159
REMARK   62  A    between atoms: _159  and  _160
REMARK   63  A    between atoms: _159  and  _162
REMARK   64  A    between atoms: _162  and  _163
REMARK   65  A    between atoms: _163  and  _164
REMARK   66  A    between atoms: _164  and  _165
REMARK   67  A    between atoms: _165  and  _166
REMARK   68  A    between atoms: _170  and  _172
REMARK   69  A    between atoms: _172  and  _173
REMARK   70  A    between atoms: _172  and  _175
REMARK   71  A    between atoms: _175  and  _176
REMARK   72  A    between atoms: _179  and  _181
REMARK   73  A    between atoms: _181  and  _182
REMARK   74  A    between atoms: _181  and  _184
REMARK   75  A    between atoms: _184  and  _185
REMARK   76  A    between atoms: _185  and  _186
REMARK   77  A    between atoms: _186  and  _187
REMARK   78  A    between atoms: _187  and  _188
REMARK   79  A    between atoms: _192  and  _194
REMARK   80  A    between atoms: _194  and  _195
REMARK   81  A    between atoms: _194  and  _197
REMARK   82  A    between atoms: _197  and  _198
REMARK   83  A    between atoms: _201  and  _203
REMARK   84  A    between atoms: _203  and  _204
REMARK   85  A    between atoms: _203  and  _206
REMARK   86  A    between atoms: _206  and  _207
REMARK   87  A    between atoms: _212  and  _213
REMARK   88  A    between atoms: _215  and  _217
REMARK   89  A    between atoms: _217  and  _218
REMARK   90  A    between atoms: _217  and  _220
REMARK   91  A    between atoms: _220  and  _221
REMARK   92  A    between atoms: _226  and  _228
REMARK   93  A    between atoms: _228  and  _229
REMARK   94  A    between atoms: _228  and  _231
REMARK   95  A    between atoms: _231  and  _232
REMARK   96  A    between atoms: _232  and  _233
REMARK   97  A    between atoms: _238  and  _240
REMARK   98  A    between atoms: _240  and  _241
REMARK   99  A    between atoms: _240  and  _243
REMARK  100  A    between atoms: _243  and  _244
REMARK  101  A    between atoms: _254  and  _256
REMARK  102  A    between atoms: _256  and  _257
REMARK  103  A    between atoms: _256  and  _259
REMARK  104  A    between atoms: _259  and  _260
REMARK  105  A    between atoms: _260  and  _261
REMARK  106  A    between atoms: _261  and  _262
REMARK  107  A    between atoms: _262  and  MG_396
REMARK  108  A    between atoms: _264  and  _266
REMARK  109  A    between atoms: _266  and  _267
REMARK  110  A    between atoms: _266  and  _269
REMARK  111  A    between atoms: _269  and  _270
REMARK  112  A    between atoms: _270  and  _271
REMARK  113  A    between atoms: _274  and  _276
REMARK  114  A    between atoms: _276  and  _277
REMARK  115  A    between atoms: _276  and  _279
REMARK  116  A    between atoms: _279  and  _280
REMARK  117  A    between atoms: _280  and  _281
REMARK  118  A    between atoms: _286  and  _288
REMARK  119  A    between atoms: _288  and  _289
REMARK  120  A    between atoms: _288  and  _291
REMARK  121  A    between atoms: _291  and  _292
REMARK  122  A    between atoms: _292  and  _293
REMARK  123  A    between atoms: _296  and  _298
REMARK  124  A    between atoms: _298  and  _299
REMARK  125  A    between atoms: _298  and  _301
REMARK  126  A    between atoms: _301  and  _302
REMARK  127  A    between atoms: _307  and  _309
REMARK  128  A    between atoms: _309  and  _310
REMARK  129  A    between atoms: _309  and  _312
REMARK  130  A    between atoms: _312  and  _313
REMARK  131  A    between atoms: _313  and  _314
REMARK  132  A    between atoms: _316  and  _318
REMARK  133  A    between atoms: _318  and  _319
REMARK  134  A    between atoms: _318  and  _321
REMARK  135  A    between atoms: _321  and  _322
REMARK  136  A    between atoms: _325  and  _327
REMARK  137  A    between atoms: _327  and  _328
REMARK  138  A    between atoms: _327  and  _330
REMARK  139  A    between atoms: _330  and  _331
REMARK  140  A    between atoms: _333  and  _335
REMARK  141  A    between atoms: _335  and  _336
REMARK  142  A    between atoms: _335  and  _338
REMARK  143  A    between atoms: _338  and  _339
REMARK  144  A    between atoms: _344  and  _346
REMARK  145  A    between atoms: _346  and  _347
REMARK  146  A    between atoms: _346  and  _349
REMARK  147  A    between atoms: _349  and  _350
REMARK  148  A    between atoms: _353  and  _355
REMARK  149  A    between atoms: _355  and  _356
REMARK  150  A    between atoms: _355  and  _358
REMARK  151  A    between atoms: _358  and  _359
REMARK  152  A    between atoms: _359  and  _360
REMARK  153  A    between atoms: _363  and  _365
REMARK  154  A    between atoms: _365  and  _366
REMARK  155  A    between atoms: _365  and  _368
REMARK  156  A    between atoms: _368  and  _369
REMARK  157  A    between atoms: _372  and  _374
REMARK  158  A    between atoms: _374  and  _375
REMARK  159  A    between atoms: _374  and  _377
REMARK  160  A    between atoms: _377  and  _378
REMARK  161  A    between atoms: _381  and  _383
REMARK  162  A    between atoms: _383  and  _384
REMARK  163  A    between atoms: _383  and  _386
REMARK  164  A    between atoms: _386  and  _387
REMARK  165  A    between atoms: _390  and  _392
REMARK  166  A    between atoms: _392  and  _393
REMARK                            x       y       z     vdW  Elec       q    Type
REMARK                         _______ _______ _______ _____ _____    ______ ____
ROOT
ATOM      1  O   HOH     1      56.903 -52.610  14.815  0.00  0.00    +0.000 OA
ENDROOT
TORSDOF 0
REMARK  Name = ../refined-set-2016/3uxk/3uxk_pocket.pdb
REMARK  166 active torsions:
REMARK  status: ('A' for Active; 'I' for Inactive)
REMARK    1  A    between atoms: _1  and  _3
REMARK    2  A    between atoms: _3  and  _4
REMARK    3  A    between atoms: _3  and  _6
REMARK    4  A    between atoms: _6  and  _7
REMARK    5  A    between atoms: _11  and  _12
REMARK    6  A    between atoms: _17  and  _19
REMARK    7  A    between atoms: _19  and  _20
REMARK    8  A    between atoms: _19  and  _22
REMARK    9  A    between atoms: _25  and  _27
REMARK   10  A    between atoms: _27  and  _28
REMARK   11  A    between atoms: _27  and  _30
REMARK   12  A    between atoms: _30  and  _31
REMARK   13  A    between atoms: _36  and  _38
REMARK   14  A    between atoms: _38  and  _39
REMARK   15  A    between atoms: _38  and  _41
REMARK   16  A    between atoms: _41  and  _42
REMARK   17  A    between atoms: _45  and  _47
REMARK   18  A    between atoms: _47  and  _48
REMARK   19  A    between atoms: _51  and  _53
REMARK   20  A    between atoms: _53  and  _54
REMARK   21  A    between atoms: _53  and  _56
REMARK   22  A    between atoms: _59  and  _61
REMARK   23  A    between atoms: _61  and  _62
REMARK   24  A    between atoms: _64  and  _66
REMARK   25  A    between atoms: _66  and  _67
REMARK   26  A    between atoms: _66  and  _69
REMARK   27  A    between atoms: _69  and  _70
REMARK   28  A    between atoms: _73  and  _75
REMARK   29  A    between atoms: _75  and  _76
REMARK   30  A    between atoms: _75  and  _78
REMARK   31  A    between atoms: _81  and  _83
REMARK   32  A    between atoms: _83  and  _84
REMARK   33  A    between atoms: _83  and  _86
REMARK   34  A    between atoms: _86  and  _87
REMARK   35  A    between atoms: _90  and  _92
REMARK   36  A    between atoms: _92  and  _93
REMARK   37  A    between atoms: _92  and  _95
REMARK   38  A    between atoms: _95  and  _96
REMARK   39  A    between atoms: _102  and  _104
REMARK   40  A    between atoms: _104  and  _105
REMARK   41  A    between atoms: _104  and  _107
REMARK   42  A    between atoms: _107  and  _108
REMARK   43  A    between atoms: _113  and  _114
REMARK   44  A    between atoms: _116  and  _118
REMARK   45  A    between atoms: _118  and  _119
REMARK   46  A    between atoms: _118  and  _121
REMARK   47  A    between atoms: _121  and  _122
REMARK   48  A    between atoms: _127  and  _128
REMARK   49  A    between atoms: _130  and  _132
REMARK   50  A    between atoms: _132  and  _133
REMARK   51  A    between atoms: _132  and  _135
REMARK   52  A    between atoms: _135  and  _136
REMARK   53  A    between atoms: _138  and  _140
REMARK   54  A    between atoms: _140  and  _141
REMARK   55  A    between atoms: _140  and  _143
REMARK   56  A    between atoms: _143  and  _144
REMARK   57  A    between atoms: _149  and  _151
REMARK   58  A    between atoms: _151  and  _152
REMARK   59  A    between atoms: _151  and  _154
REMARK   60  A    between atoms: _154  and  _155
REMARK   61  A    between atoms: _157  and  _159
REMARK   62  A    between atoms: _159  and  _160
REMARK   63  A    between atoms: _159  and  _162
REMARK   64  A    between atoms: _162  and  _163
REMARK   65  A    between atoms: _163  and  _164
REMARK   66  A    between atoms: _164  and  _165
REMARK   67  A    between atoms: _165  and  _166
REMARK   68  A    between atoms: _170  and  _172
REMARK   69  A    between atoms: _172  and  _173
REMARK   70  A    between atoms: _172  and  _175
REMARK   71  A    between atoms: _175  and  _176
REMARK   72  A    between atoms: _179  and  _181
REMARK   73  A    between atoms: _181  and  _182
REMARK   74  A    between atoms: _181  and  _184
REMARK   75  A    between atoms: _184  and  _185
REMARK   76  A    between atoms: _185  and  _186
REMARK   77  A    between atoms: _186  and  _187
REMARK   78  A    between atoms: _187  and  _188
REMARK   79  A    between atoms: _192  and  _194
REMARK   80  A    between atoms: _194  and  _195
REMARK   81  A    between atoms: _194  and  _197
REMARK   82  A    between atoms: _197  and  _198
REMARK   83  A    between atoms: _201  and  _203
REMARK   84  A    between atoms: _203  and  _204
REMARK   85  A    between atoms: _203  and  _206
REMARK   86  A    between atoms: _206  and  _207
REMARK   87  A    between atoms: _212  and  _213
REMARK   88  A    between atoms: _215  and  _217
REMARK   89  A    between atoms: _217  and  _218
REMARK   90  A    between atoms: _217  and  _220
REMARK   91  A    between atoms: _220  and  _221
REMARK   92  A    between atoms: _226  and  _228
REMARK   93  A    between atoms: _228  and  _229
REMARK   94  A    between atoms: _228  and  _231
REMARK   95  A    between atoms: _231  and  _232
REMARK   96  A    between atoms: _232  and  _233
REMARK   97  A    between atoms: _238  and  _240
REMARK   98  A    between atoms: _240  and  _241
REMARK   99  A    between atoms: _240  and  _243
REMARK  100  A    between atoms: _243  and  _244
REMARK  101  A    between atoms: _254  and  _256
REMARK  102  A    between atoms: _256  and  _257
REMARK  103  A    between atoms: _256  and  _259
REMARK  104  A    between atoms: _259  and  _260
REMARK  105  A    between atoms: _260  and  _261
REMARK  106  A    between atoms: _261  and  _262
REMARK  107  A    between atoms: _262  and  MG_396
REMARK  108  A    between atoms: _264  and  _266
REMARK  109  A    between atoms: _266  and  _267
REMARK  110  A    between atoms: _266  and  _269
REMARK  111  A    between atoms: _269  and  _270
REMARK  112  A    between atoms: _270  and  _271
REMARK  113  A    between atoms: _274  and  _276
REMARK  114  A    between atoms: _276  and  _277
REMARK  115  A    between atoms: _276  and  _279
REMARK  116  A    between atoms: _279  and  _280
REMARK  117  A    between atoms: _280  and  _281
REMARK  118  A    between atoms: _286  and  _288
REMARK  119  A    between atoms: _288  and  _289
REMARK  120  A    between atoms: _288  and  _291
REMARK  121  A    between atoms: _291  and  _292
REMARK  122  A    between atoms: _292  and  _293
REMARK  123  A    between atoms: _296  and  _298
REMARK  124  A    between atoms: _298  and  _299
REMARK  125  A    between atoms: _298  and  _301
REMARK  126  A    between atoms: _301  and  _302
REMARK  127  A    between atoms: _307  and  _309
REMARK  128  A    between atoms: _309  and  _310
REMARK  129  A    between atoms: _309  and  _312
REMARK  130  A    between atoms: _312  and  _313
REMARK  131  A    between atoms: _313  and  _314
REMARK  132  A    between atoms: _316  and  _318
REMARK  133  A    between atoms: _318  and  _319
REMARK  134  A    between atoms: _318  and  _321
REMARK  135  A    between atoms: _321  and  _322
REMARK  136  A    between atoms: _325  and  _327
REMARK  137  A    between atoms: _327  and  _328
REMARK  138  A    between atoms: _327  and  _330
REMARK  139  A    between atoms: _330  and  _331
REMARK  140  A    between atoms: _333  and  _335
REMARK  141  A    between atoms: _335  and  _336
REMARK  142  A    between atoms: _335  and  _338
REMARK  143  A    between atoms: _338  and  _339
REMARK  144  A    between atoms: _344  and  _346
REMARK  145  A    between atoms: _346  and  _347
REMARK  146  A    between atoms: _346  and  _349
REMARK  147  A    between atoms: _349  and  _350
REMARK  148  A    between atoms: _353  and  _355
REMARK  149  A    between atoms: _355  and  _356
REMARK  150  A    between atoms: _355  and  _358
REMARK  151  A    between atoms: _358  and  _359
REMARK  152  A    between atoms: _359  and  _360
REMARK  153  A    between atoms: _363  and  _365
REMARK  154  A    between atoms: _365  and  _366
REMARK  155  A    between atoms: _365  and  _368
REMARK  156  A    between atoms: _368  and  _369
REMARK  157  A    between atoms: _372  and  _374
REMARK  158  A    between atoms: _374  and  _375
REMARK  159  A    between atoms: _374  and  _377
REMARK  160  A    between atoms: _377  and  _378
REMARK  161  A    between atoms: _381  and  _383
REMARK  162  A    between atoms: _383  and  _384
REMARK  163  A    between atoms: _383  and  _386
REMARK  164  A    between atoms: _386  and  _387
REMARK  165  A    between atoms: _390  and  _392
REMARK  166  A    between atoms: _392  and  _393
REMARK                            x       y       z     vdW  Elec       q    Type
REMARK                         _______ _______ _______ _____ _____    ______ ____
ROOT
ATOM      1  O   HOH     1      47.298 -51.646  24.726  0.00  0.00    +0.000 OA
ENDROOT
TORSDOF 0
REMARK  Name = ../refined-set-2016/3uxk/3uxk_pocket.pdb
REMARK  166 active torsions:
REMARK  status: ('A' for Active; 'I' for Inactive)
REMARK    1  A    between atoms: _1  and  _3
REMARK    2  A    between atoms: _3  and  _4
REMARK    3  A    between atoms: _3  and  _6
REMARK    4  A    between atoms: _6  and  _7
REMARK    5  A    between atoms: _11  and  _12
REMARK    6  A    between atoms: _17  and  _19
REMARK    7  A    between atoms: _19  and  _20
REMARK    8  A    between atoms: _19  and  _22
REMARK    9  A    between atoms: _25  and  _27
REMARK   10  A    between atoms: _27  and  _28
REMARK   11  A    between atoms: _27  and  _30
REMARK   12  A    between atoms: _30  and  _31
REMARK   13  A    between atoms: _36  and  _38
REMARK   14  A    between atoms: _38  and  _39
REMARK   15  A    between atoms: _38  and  _41
REMARK   16  A    between atoms: _41  and  _42
REMARK   17  A    between atoms: _45  and  _47
REMARK   18  A    between atoms: _47  and  _48
REMARK   19  A    between atoms: _51  and  _53
REMARK   20  A    between atoms: _53  and  _54
REMARK   21  A    between atoms: _53  and  _56
REMARK   22  A    between atoms: _59  and  _61
REMARK   23  A    between atoms: _61  and  _62
REMARK   24  A    between atoms: _64  and  _66
REMARK   25  A    between atoms: _66  and  _67
REMARK   26  A    between atoms: _66  and  _69
REMARK   27  A    between atoms: _69  and  _70
REMARK   28  A    between atoms: _73  and  _75
REMARK   29  A    between atoms: _75  and  _76
REMARK   30  A    between atoms: _75  and  _78
REMARK   31  A    between atoms: _81  and  _83
REMARK   32  A    between atoms: _83  and  _84
REMARK   33  A    between atoms: _83  and  _86
REMARK   34  A    between atoms: _86  and  _87
REMARK   35  A    between atoms: _90  and  _92
REMARK   36  A    between atoms: _92  and  _93
REMARK   37  A    between atoms: _92  and  _95
REMARK   38  A    between atoms: _95  and  _96
REMARK   39  A    between atoms: _102  and  _104
REMARK   40  A    between atoms: _104  and  _105
REMARK   41  A    between atoms: _104  and  _107
REMARK   42  A    between atoms: _107  and  _108
REMARK   43  A    between atoms: _113  and  _114
REMARK   44  A    between atoms: _116  and  _118
REMARK   45  A    between atoms: _118  and  _119
REMARK   46  A    between atoms: _118  and  _121
REMARK   47  A    between atoms: _121  and  _122
REMARK   48  A    between atoms: _127  and  _128
REMARK   49  A    between atoms: _130  and  _132
REMARK   50  A    between atoms: _132  and  _133
REMARK   51  A    between atoms: _132  and  _135
REMARK   52  A    between atoms: _135  and  _136
REMARK   53  A    between atoms: _138  and  _140
REMARK   54  A    between atoms: _140  and  _141
REMARK   55  A    between atoms: _140  and  _143
REMARK   56  A    between atoms: _143  and  _144
REMARK   57  A    between atoms: _149  and  _151
REMARK   58  A    between atoms: _151  and  _152
REMARK   59  A    between atoms: _151  and  _154
REMARK   60  A    between atoms: _154  and  _155
REMARK   61  A    between atoms: _157  and  _159
REMARK   62  A    between atoms: _159  and  _160
REMARK   63  A    between atoms: _159  and  _162
REMARK   64  A    between atoms: _162  and  _163
REMARK   65  A    between atoms: _163  and  _164
REMARK   66  A    between atoms: _164  and  _165
REMARK   67  A    between atoms: _165  and  _166
REMARK   68  A    between atoms: _170  and  _172
REMARK   69  A    between atoms: _172  and  _173
REMARK   70  A    between atoms: _172  and  _175
REMARK   71  A    between atoms: _175  and  _176
REMARK   72  A    between atoms: _179  and  _181
REMARK   73  A    between atoms: _181  and  _182
REMARK   74  A    between atoms: _181  and  _184
REMARK   75  A    between atoms: _184  and  _185
REMARK   76  A    between atoms: _185  and  _186
REMARK   77  A    between atoms: _186  and  _187
REMARK   78  A    between atoms: _187  and  _188
REMARK   79  A    between atoms: _192  and  _194
REMARK   80  A    between atoms: _194  and  _195
REMARK   81  A    between atoms: _194  and  _197
REMARK   82  A    between atoms: _197  and  _198
REMARK   83  A    between atoms: _201  and  _203
REMARK   84  A    between atoms: _203  and  _204
REMARK   85  A    between atoms: _203  and  _206
REMARK   86  A    between atoms: _206  and  _207
REMARK   87  A    between atoms: _212  and  _213
REMARK   88  A    between atoms: _215  and  _217
REMARK   89  A    between atoms: _217  and  _218
REMARK   90  A    between atoms: _217  and  _220
REMARK   91  A    between atoms: _220  and  _221
REMARK   92  A    between atoms: _226  and  _228
REMARK   93  A    between atoms: _228  and  _229
REMARK   94  A    between atoms: _228  and  _231
REMARK   95  A    between atoms: _231  and  _232
REMARK   96  A    between atoms: _232  and  _233
REMARK   97  A    between atoms: _238  and  _240
REMARK   98  A    between atoms: _240  and  _241
REMARK   99  A    between atoms: _240  and  _243
REMARK  100  A    between atoms: _243  and  _244
REMARK  101  A    between atoms: _254  and  _256
REMARK  102  A    between atoms: _256  and  _257
REMARK  103  A    between atoms: _256  and  _259
REMARK  104  A    between atoms: _259  and  _260
REMARK  105  A    between atoms: _260  and  _261
REMARK  106  A    between atoms: _261  and  _262
REMARK  107  A    between atoms: _262  and  MG_396
REMARK  108  A    between atoms: _264  and  _266
REMARK  109  A    between atoms: _266  and  _267
REMARK  110  A    between atoms: _266  and  _269
REMARK  111  A    between atoms: _269  and  _270
REMARK  112  A    between atoms: _270  and  _271
REMARK  113  A    between atoms: _274  and  _276
REMARK  114  A    between atoms: _276  and  _277
REMARK  115  A    between atoms: _276  and  _279
REMARK  116  A    between atoms: _279  and  _280
REMARK  117  A    between atoms: _280  and  _281
REMARK  118  A    between atoms: _286  and  _288
REMARK  119  A    between atoms: _288  and  _289
REMARK  120  A    between atoms: _288  and  _291
REMARK  121  A    between atoms: _291  and  _292
REMARK  122  A    between atoms: _292  and  _293
REMARK  123  A    between atoms: _296  and  _298
REMARK  124  A    between atoms: _298  and  _299
REMARK  125  A    between atoms: _298  and  _301
REMARK  126  A    between atoms: _301  and  _302
REMARK  127  A    between atoms: _307  and  _309
REMARK  128  A    between atoms: _309  and  _310
REMARK  129  A    between atoms: _309  and  _312
REMARK  130  A    between atoms: _312  and  _313
REMARK  131  A    between atoms: _313  and  _314
REMARK  132  A    between atoms: _316  and  _318
REMARK  133  A    between atoms: _318  and  _319
REMARK  134  A    between atoms: _318  and  _321
REMARK  135  A    between atoms: _321  and  _322
REMARK  136  A    between atoms: _325  and  _327
REMARK  137  A    between atoms: _327  and  _328
REMARK  138  A    between atoms: _327  and  _330
REMARK  139  A    between atoms: _330  and  _331
REMARK  140  A    between atoms: _333  and  _335
REMARK  141  A    between atoms: _335  and  _336
REMARK  142  A    between atoms: _335  and  _338
REMARK  143  A    between atoms: _338  and  _339
REMARK  144  A    between atoms: _344  and  _346
REMARK  145  A    between atoms: _346  and  _347
REMARK  146  A    between atoms: _346  and  _349
REMARK  147  A    between atoms: _349  and  _350
REMARK  148  A    between atoms: _353  and  _355
REMARK  149  A    between atoms: _355  and  _356
REMARK  150  A    between atoms: _355  and  _358
REMARK  151  A    between atoms: _358  and  _359
REMARK  152  A    between atoms: _359  and  _360
REMARK  153  A    between atoms: _363  and  _365
REMARK  154  A    between atoms: _365  and  _366
REMARK  155  A    between atoms: _365  and  _368
REMARK  156  A    between atoms: _368  and  _369
REMARK  157  A    between atoms: _372  and  _374
REMARK  158  A    between atoms: _374  and  _375
REMARK  159  A    between atoms: _374  and  _377
REMARK  160  A    between atoms: _377  and  _378
REMARK  161  A    between atoms: _381  and  _383
REMARK  162  A    between atoms: _383  and  _384
REMARK  163  A    between atoms: _383  and  _386
REMARK  164  A    between atoms: _386  and  _387
REMARK  165  A    between atoms: _390  and  _392
REMARK  166  A    between atoms: _392  and  _393
REMARK                            x       y       z     vdW  Elec       q    Type
REMARK                         _______ _______ _______ _____ _____    ______ ____
ROOT
ATOM      1  O   HOH     1      51.777 -55.368  23.035  0.00  0.00    +0.000 OA
ENDROOT
TORSDOF 0
REMARK  Name = ../refined-set-2016/3uxk/3uxk_pocket.pdb
REMARK  166 active torsions:
REMARK  status: ('A' for Active; 'I' for Inactive)
REMARK    1  A    between atoms: _1  and  _3
REMARK    2  A    between atoms: _3  and  _4
REMARK    3  A    between atoms: _3  and  _6
REMARK    4  A    between atoms: _6  and  _7
REMARK    5  A    between atoms: _11  and  _12
REMARK    6  A    between atoms: _17  and  _19
REMARK    7  A    between atoms: _19  and  _20
REMARK    8  A    between atoms: _19  and  _22
REMARK    9  A    between atoms: _25  and  _27
REMARK   10  A    between atoms: _27  and  _28
REMARK   11  A    between atoms: _27  and  _30
REMARK   12  A    between atoms: _30  and  _31
REMARK   13  A    between atoms: _36  and  _38
REMARK   14  A    between atoms: _38  and  _39
REMARK   15  A    between atoms: _38  and  _41
REMARK   16  A    between atoms: _41  and  _42
REMARK   17  A    between atoms: _45  and  _47
REMARK   18  A    between atoms: _47  and  _48
REMARK   19  A    between atoms: _51  and  _53
REMARK   20  A    between atoms: _53  and  _54
REMARK   21  A    between atoms: _53  and  _56
REMARK   22  A    between atoms: _59  and  _61
REMARK   23  A    between atoms: _61  and  _62
REMARK   24  A    between atoms: _64  and  _66
REMARK   25  A    between atoms: _66  and  _67
REMARK   26  A    between atoms: _66  and  _69
REMARK   27  A    between atoms: _69  and  _70
REMARK   28  A    between atoms: _73  and  _75
REMARK   29  A    between atoms: _75  and  _76
REMARK   30  A    between atoms: _75  and  _78
REMARK   31  A    between atoms: _81  and  _83
REMARK   32  A    between atoms: _83  and  _84
REMARK   33  A    between atoms: _83  and  _86
REMARK   34  A    between atoms: _86  and  _87
REMARK   35  A    between atoms: _90  and  _92
REMARK   36  A    between atoms: _92  and  _93
REMARK   37  A    between atoms: _92  and  _95
REMARK   38  A    between atoms: _95  and  _96
REMARK   39  A    between atoms: _102  and  _104
REMARK   40  A    between atoms: _104  and  _105
REMARK   41  A    between atoms: _104  and  _107
REMARK   42  A    between atoms: _107  and  _108
REMARK   43  A    between atoms: _113  and  _114
REMARK   44  A    between atoms: _116  and  _118
REMARK   45  A    between atoms: _118  and  _119
REMARK   46  A    between atoms: _118  and  _121
REMARK   47  A    between atoms: _121  and  _122
REMARK   48  A    between atoms: _127  and  _128
REMARK   49  A    between atoms: _130  and  _132
REMARK   50  A    between atoms: _132  and  _133
REMARK   51  A    between atoms: _132  and  _135
REMARK   52  A    between atoms: _135  and  _136
REMARK   53  A    between atoms: _138  and  _140
REMARK   54  A    between atoms: _140  and  _141
REMARK   55  A    between atoms: _140  and  _143
REMARK   56  A    between atoms: _143  and  _144
REMARK   57  A    between atoms: _149  and  _151
REMARK   58  A    between atoms: _151  and  _152
REMARK   59  A    between atoms: _151  and  _154
REMARK   60  A    between atoms: _154  and  _155
REMARK   61  A    between atoms: _157  and  _159
REMARK   62  A    between atoms: _159  and  _160
REMARK   63  A    between atoms: _159  and  _162
REMARK   64  A    between atoms: _162  and  _163
REMARK   65  A    between atoms: _163  and  _164
REMARK   66  A    between atoms: _164  and  _165
REMARK   67  A    between atoms: _165  and  _166
REMARK   68  A    between atoms: _170  and  _172
REMARK   69  A    between atoms: _172  and  _173
REMARK   70  A    between atoms: _172  and  _175
REMARK   71  A    between atoms: _175  and  _176
REMARK   72  A    between atoms: _179  and  _181
REMARK   73  A    between atoms: _181  and  _182
REMARK   74  A    between atoms: _181  and  _184
REMARK   75  A    between atoms: _184  and  _185
REMARK   76  A    between atoms: _185  and  _186
REMARK   77  A    between atoms: _186  and  _187
REMARK   78  A    between atoms: _187  and  _188
REMARK   79  A    between atoms: _192  and  _194
REMARK   80  A    between atoms: _194  and  _195
REMARK   81  A    between atoms: _194  and  _197
REMARK   82  A    between atoms: _197  and  _198
REMARK   83  A    between atoms: _201  and  _203
REMARK   84  A    between atoms: _203  and  _204
REMARK   85  A    between atoms: _203  and  _206
REMARK   86  A    between atoms: _206  and  _207
REMARK   87  A    between atoms: _212  and  _213
REMARK   88  A    between atoms: _215  and  _217
REMARK   89  A    between atoms: _217  and  _218
REMARK   90  A    between atoms: _217  and  _220
REMARK   91  A    between atoms: _220  and  _221
REMARK   92  A    between atoms: _226  and  _228
REMARK   93  A    between atoms: _228  and  _229
REMARK   94  A    between atoms: _228  and  _231
REMARK   95  A    between atoms: _231  and  _232
REMARK   96  A    between atoms: _232  and  _233
REMARK   97  A    between atoms: _238  and  _240
REMARK   98  A    between atoms: _240  and  _241
REMARK   99  A    between atoms: _240  and  _243
REMARK  100  A    between atoms: _243  and  _244
REMARK  101  A    between atoms: _254  and  _256
REMARK  102  A    between atoms: _256  and  _257
REMARK  103  A    between atoms: _256  and  _259
REMARK  104  A    between atoms: _259  and  _260
REMARK  105  A    between atoms: _260  and  _261
REMARK  106  A    between atoms: _261  and  _262
REMARK  107  A    between atoms: _262  and  MG_396
REMARK  108  A    between atoms: _264  and  _266
REMARK  109  A    between atoms: _266  and  _267
REMARK  110  A    between atoms: _266  and  _269
REMARK  111  A    between atoms: _269  and  _270
REMARK  112  A    between atoms: _270  and  _271
REMARK  113  A    between atoms: _274  and  _276
REMARK  114  A    between atoms: _276  and  _277
REMARK  115  A    between atoms: _276  and  _279
REMARK  116  A    between atoms: _279  and  _280
REMARK  117  A    between atoms: _280  and  _281
REMARK  118  A    between atoms: _286  and  _288
REMARK  119  A    between atoms: _288  and  _289
REMARK  120  A    between atoms: _288  and  _291
REMARK  121  A    between atoms: _291  and  _292
REMARK  122  A    between atoms: _292  and  _293
REMARK  123  A    between atoms: _296  and  _298
REMARK  124  A    between atoms: _298  and  _299
REMARK  125  A    between atoms: _298  and  _301
REMARK  126  A    between atoms: _301  and  _302
REMARK  127  A    between atoms: _307  and  _309
REMARK  128  A    between atoms: _309  and  _310
REMARK  129  A    between atoms: _309  and  _312
REMARK  130  A    between atoms: _312  and  _313
REMARK  131  A    between atoms: _313  and  _314
REMARK  132  A    between atoms: _316  and  _318
REMARK  133  A    between atoms: _318  and  _319
REMARK  134  A    between atoms: _318  and  _321
REMARK  135  A    between atoms: _321  and  _322
REMARK  136  A    between atoms: _325  and  _327
REMARK  137  A    between atoms: _327  and  _328
REMARK  138  A    between atoms: _327  and  _330
REMARK  139  A    between atoms: _330  and  _331
REMARK  140  A    between atoms: _333  and  _335
REMARK  141  A    between atoms: _335  and  _336
REMARK  142  A    between atoms: _335  and  _338
REMARK  143  A    between atoms: _338  and  _339
REMARK  144  A    between atoms: _344  and  _346
REMARK  145  A    between atoms: _346  and  _347
REMARK  146  A    between atoms: _346  and  _349
REMARK  147  A    between atoms: _349  and  _350
REMARK  148  A    between atoms: _353  and  _355
REMARK  149  A    between atoms: _355  and  _356
REMARK  150  A    between atoms: _355  and  _358
REMARK  151  A    between atoms: _358  and  _359
REMARK  152  A    between atoms: _359  and  _360
REMARK  153  A    between atoms: _363  and  _365
REMARK  154  A    between atoms: _365  and  _366
REMARK  155  A    between atoms: _365  and  _368
REMARK  156  A    between atoms: _368  and  _369
REMARK  157  A    between atoms: _372  and  _374
REMARK  158  A    between atoms: _374  and  _375
REMARK  159  A    between atoms: _374  and  _377
REMARK  160  A    between atoms: _377  and  _378
REMARK  161  A    between atoms: _381  and  _383
REMARK  162  A    between atoms: _383  and  _384
REMARK  163  A    between atoms: _383  and  _386
REMARK  164  A    between atoms: _386  and  _387
REMARK  165  A    between atoms: _390  and  _392
REMARK  166  A    between atoms: _392  and  _393
REMARK                            x       y       z     vdW  Elec       q    Type
REMARK                         _______ _______ _______ _____ _____    ______ ____
ROOT
ATOM      1  O   HOH     1      58.427 -51.550  22.065  0.00  0.00    +0.000 OA
ENDROOT
TORSDOF 0
REMARK  Name = ../refined-set-2016/3uxk/3uxk_pocket.pdb
REMARK  166 active torsions:
REMARK  status: ('A' for Active; 'I' for Inactive)
REMARK    1  A    between atoms: _1  and  _3
REMARK    2  A    between atoms: _3  and  _4
REMARK    3  A    between atoms: _3  and  _6
REMARK    4  A    between atoms: _6  and  _7
REMARK    5  A    between atoms: _11  and  _12
REMARK    6  A    between atoms: _17  and  _19
REMARK    7  A    between atoms: _19  and  _20
REMARK    8  A    between atoms: _19  and  _22
REMARK    9  A    between atoms: _25  and  _27
REMARK   10  A    between atoms: _27  and  _28
REMARK   11  A    between atoms: _27  and  _30
REMARK   12  A    between atoms: _30  and  _31
REMARK   13  A    between atoms: _36  and  _38
REMARK   14  A    between atoms: _38  and  _39
REMARK   15  A    between atoms: _38  and  _41
REMARK   16  A    between atoms: _41  and  _42
REMARK   17  A    between atoms: _45  and  _47
REMARK   18  A    between atoms: _47  and  _48
REMARK   19  A    between atoms: _51  and  _53
REMARK   20  A    between atoms: _53  and  _54
REMARK   21  A    between atoms: _53  and  _56
REMARK   22  A    between atoms: _59  and  _61
REMARK   23  A    between atoms: _61  and  _62
REMARK   24  A    between atoms: _64  and  _66
REMARK   25  A    between atoms: _66  and  _67
REMARK   26  A    between atoms: _66  and  _69
REMARK   27  A    between atoms: _69  and  _70
REMARK   28  A    between atoms: _73  and  _75
REMARK   29  A    between atoms: _75  and  _76
REMARK   30  A    between atoms: _75  and  _78
REMARK   31  A    between atoms: _81  and  _83
REMARK   32  A    between atoms: _83  and  _84
REMARK   33  A    between atoms: _83  and  _86
REMARK   34  A    between atoms: _86  and  _87
REMARK   35  A    between atoms: _90  and  _92
REMARK   36  A    between atoms: _92  and  _93
REMARK   37  A    between atoms: _92  and  _95
REMARK   38  A    between atoms: _95  and  _96
REMARK   39  A    between atoms: _102  and  _104
REMARK   40  A    between atoms: _104  and  _105
REMARK   41  A    between atoms: _104  and  _107
REMARK   42  A    between atoms: _107  and  _108
REMARK   43  A    between atoms: _113  and  _114
REMARK   44  A    between atoms: _116  and  _118
REMARK   45  A    between atoms: _118  and  _119
REMARK   46  A    between atoms: _118  and  _121
REMARK   47  A    between atoms: _121  and  _122
REMARK   48  A    between atoms: _127  and  _128
REMARK   49  A    between atoms: _130  and  _132
REMARK   50  A    between atoms: _132  and  _133
REMARK   51  A    between atoms: _132  and  _135
REMARK   52  A    between atoms: _135  and  _136
REMARK   53  A    between atoms: _138  and  _140
REMARK   54  A    between atoms: _140  and  _141
REMARK   55  A    between atoms: _140  and  _143
REMARK   56  A    between atoms: _143  and  _144
REMARK   57  A    between atoms: _149  and  _151
REMARK   58  A    between atoms: _151  and  _152
REMARK   59  A    between atoms: _151  and  _154
REMARK   60  A    between atoms: _154  and  _155
REMARK   61  A    between atoms: _157  and  _159
REMARK   62  A    between atoms: _159  and  _160
REMARK   63  A    between atoms: _159  and  _162
REMARK   64  A    between atoms: _162  and  _163
REMARK   65  A    between atoms: _163  and  _164
REMARK   66  A    between atoms: _164  and  _165
REMARK   67  A    between atoms: _165  and  _166
REMARK   68  A    between atoms: _170  and  _172
REMARK   69  A    between atoms: _172  and  _173
REMARK   70  A    between atoms: _172  and  _175
REMARK   71  A    between atoms: _175  and  _176
REMARK   72  A    between atoms: _179  and  _181
REMARK   73  A    between atoms: _181  and  _182
REMARK   74  A    between atoms: _181  and  _184
REMARK   75  A    between atoms: _184  and  _185
REMARK   76  A    between atoms: _185  and  _186
REMARK   77  A    between atoms: _186  and  _187
REMARK   78  A    between atoms: _187  and  _188
REMARK   79  A    between atoms: _192  and  _194
REMARK   80  A    between atoms: _194  and  _195
REMARK   81  A    between atoms: _194  and  _197
REMARK   82  A    between atoms: _197  and  _198
REMARK   83  A    between atoms: _201  and  _203
REMARK   84  A    between atoms: _203  and  _204
REMARK   85  A    between atoms: _203  and  _206
REMARK   86  A    between atoms: _206  and  _207
REMARK   87  A    between atoms: _212  and  _213
REMARK   88  A    between atoms: _215  and  _217
REMARK   89  A    between atoms: _217  and  _218
REMARK   90  A    between atoms: _217  and  _220
REMARK   91  A    between atoms: _220  and  _221
REMARK   92  A    between atoms: _226  and  _228
REMARK   93  A    between atoms: _228  and  _229
REMARK   94  A    between atoms: _228  and  _231
REMARK   95  A    between atoms: _231  and  _232
REMARK   96  A    between atoms: _232  and  _233
REMARK   97  A    between atoms: _238  and  _240
REMARK   98  A    between atoms: _240  and  _241
REMARK   99  A    between atoms: _240  and  _243
REMARK  100  A    between atoms: _243  and  _244
REMARK  101  A    between atoms: _254  and  _256
REMARK  102  A    between atoms: _256  and  _257
REMARK  103  A    between atoms: _256  and  _259
REMARK  104  A    between atoms: _259  and  _260
REMARK  105  A    between atoms: _260  and  _261
REMARK  106  A    between atoms: _261  and  _262
REMARK  107  A    between atoms: _262  and  MG_396
REMARK  108  A    between atoms: _264  and  _266
REMARK  109  A    between atoms: _266  and  _267
REMARK  110  A    between atoms: _266  and  _269
REMARK  111  A    between atoms: _269  and  _270
REMARK  112  A    between atoms: _270  and  _271
REMARK  113  A    between atoms: _274  and  _276
REMARK  114  A    between atoms: _276  and  _277
REMARK  115  A    between atoms: _276  and  _279
REMARK  116  A    between atoms: _279  and  _280
REMARK  117  A    between atoms: _280  and  _281
REMARK  118  A    between atoms: _286  and  _288
REMARK  119  A    between atoms: _288  and  _289
REMARK  120  A    between atoms: _288  and  _291
REMARK  121  A    between atoms: _291  and  _292
REMARK  122  A    between atoms: _292  and  _293
REMARK  123  A    between atoms: _296  and  _298
REMARK  124  A    between atoms: _298  and  _299
REMARK  125  A    between atoms: _298  and  _301
REMARK  126  A    between atoms: _301  and  _302
REMARK  127  A    between atoms: _307  and  _309
REMARK  128  A    between atoms: _309  and  _310
REMARK  129  A    between atoms: _309  and  _312
REMARK  130  A    between atoms: _312  and  _313
REMARK  131  A    between atoms: _313  and  _314
REMARK  132  A    between atoms: _316  and  _318
REMARK  133  A    between atoms: _318  and  _319
REMARK  134  A    between atoms: _318  and  _321
REMARK  135  A    between atoms: _321  and  _322
REMARK  136  A    between atoms: _325  and  _327
REMARK  137  A    between atoms: _327  and  _328
REMARK  138  A    between atoms: _327  and  _330
REMARK  139  A    between atoms: _330  and  _331
REMARK  140  A    between atoms: _333  and  _335
REMARK  141  A    between atoms: _335  and  _336
REMARK  142  A    between atoms: _335  and  _338
REMARK  143  A    between atoms: _338  and  _339
REMARK  144  A    between atoms: _344  and  _346
REMARK  145  A    between atoms: _346  and  _347
REMARK  146  A    between atoms: _346  and  _349
REMARK  147  A    between atoms: _349  and  _350
REMARK  148  A    between atoms: _353  and  _355
REMARK  149  A    between atoms: _355  and  _356
REMARK  150  A    between atoms: _355  and  _358
REMARK  151  A    between atoms: _358  and  _359
REMARK  152  A    between atoms: _359  and  _360
REMARK  153  A    between atoms: _363  and  _365
REMARK  154  A    between atoms: _365  and  _366
REMARK  155  A    between atoms: _365  and  _368
REMARK  156  A    between atoms: _368  and  _369
REMARK  157  A    between atoms: _372  and  _374
REMARK  158  A    between atoms: _374  and  _375
REMARK  159  A    between atoms: _374  and  _377
REMARK  160  A    between atoms: _377  and  _378
REMARK  161  A    between atoms: _381  and  _383
REMARK  162  A    between atoms: _383  and  _384
REMARK  163  A    between atoms: _383  and  _386
REMARK  164  A    between atoms: _386  and  _387
REMARK  165  A    between atoms: _390  and  _392
REMARK  166  A    between atoms: _392  and  _393
REMARK                            x       y       z     vdW  Elec       q    Type
REMARK                         _______ _______ _______ _____ _____    ______ ____
ROOT
ATOM      1  O   HOH     1      53.481 -44.602  14.153  0.00  0.00    +0.000 OA
ENDROOT
TORSDOF 0
REMARK  Name = ../refined-set-2016/3uxk/3uxk_pocket.pdb
REMARK  166 active torsions:
REMARK  status: ('A' for Active; 'I' for Inactive)
REMARK    1  A    between atoms: _1  and  _3
REMARK    2  A    between atoms: _3  and  _4
REMARK    3  A    between atoms: _3  and  _6
REMARK    4  A    between atoms: _6  and  _7
REMARK    5  A    between atoms: _11  and  _12
REMARK    6  A    between atoms: _17  and  _19
REMARK    7  A    between atoms: _19  and  _20
REMARK    8  A    between atoms: _19  and  _22
REMARK    9  A    between atoms: _25  and  _27
REMARK   10  A    between atoms: _27  and  _28
REMARK   11  A    between atoms: _27  and  _30
REMARK   12  A    between atoms: _30  and  _31
REMARK   13  A    between atoms: _36  and  _38
REMARK   14  A    between atoms: _38  and  _39
REMARK   15  A    between atoms: _38  and  _41
REMARK   16  A    between atoms: _41  and  _42
REMARK   17  A    between atoms: _45  and  _47
REMARK   18  A    between atoms: _47  and  _48
REMARK   19  A    between atoms: _51  and  _53
REMARK   20  A    between atoms: _53  and  _54
REMARK   21  A    between atoms: _53  and  _56
REMARK   22  A    between atoms: _59  and  _61
REMARK   23  A    between atoms: _61  and  _62
REMARK   24  A    between atoms: _64  and  _66
REMARK   25  A    between atoms: _66  and  _67
REMARK   26  A    between atoms: _66  and  _69
REMARK   27  A    between atoms: _69  and  _70
REMARK   28  A    between atoms: _73  and  _75
REMARK   29  A    between atoms: _75  and  _76
REMARK   30  A    between atoms: _75  and  _78
REMARK   31  A    between atoms: _81  and  _83
REMARK   32  A    between atoms: _83  and  _84
REMARK   33  A    between atoms: _83  and  _86
REMARK   34  A    between atoms: _86  and  _87
REMARK   35  A    between atoms: _90  and  _92
REMARK   36  A    between atoms: _92  and  _93
REMARK   37  A    between atoms: _92  and  _95
REMARK   38  A    between atoms: _95  and  _96
REMARK   39  A    between atoms: _102  and  _104
REMARK   40  A    between atoms: _104  and  _105
REMARK   41  A    between atoms: _104  and  _107
REMARK   42  A    between atoms: _107  and  _108
REMARK   43  A    between atoms: _113  and  _114
REMARK   44  A    between atoms: _116  and  _118
REMARK   45  A    between atoms: _118  and  _119
REMARK   46  A    between atoms: _118  and  _121
REMARK   47  A    between atoms: _121  and  _122
REMARK   48  A    between atoms: _127  and  _128
REMARK   49  A    between atoms: _130  and  _132
REMARK   50  A    between atoms: _132  and  _133
REMARK   51  A    between atoms: _132  and  _135
REMARK   52  A    between atoms: _135  and  _136
REMARK   53  A    between atoms: _138  and  _140
REMARK   54  A    between atoms: _140  and  _141
REMARK   55  A    between atoms: _140  and  _143
REMARK   56  A    between atoms: _143  and  _144
REMARK   57  A    between atoms: _149  and  _151
REMARK   58  A    between atoms: _151  and  _152
REMARK   59  A    between atoms: _151  and  _154
REMARK   60  A    between atoms: _154  and  _155
REMARK   61  A    between atoms: _157  and  _159
REMARK   62  A    between atoms: _159  and  _160
REMARK   63  A    between atoms: _159  and  _162
REMARK   64  A    between atoms: _162  and  _163
REMARK   65  A    between atoms: _163  and  _164
REMARK   66  A    between atoms: _164  and  _165
REMARK   67  A    between atoms: _165  and  _166
REMARK   68  A    between atoms: _170  and  _172
REMARK   69  A    between atoms: _172  and  _173
REMARK   70  A    between atoms: _172  and  _175
REMARK   71  A    between atoms: _175  and  _176
REMARK   72  A    between atoms: _179  and  _181
REMARK   73  A    between atoms: _181  and  _182
REMARK   74  A    between atoms: _181  and  _184
REMARK   75  A    between atoms: _184  and  _185
REMARK   76  A    between atoms: _185  and  _186
REMARK   77  A    between atoms: _186  and  _187
REMARK   78  A    between atoms: _187  and  _188
REMARK   79  A    between atoms: _192  and  _194
REMARK   80  A    between atoms: _194  and  _195
REMARK   81  A    between atoms: _194  and  _197
REMARK   82  A    between atoms: _197  and  _198
REMARK   83  A    between atoms: _201  and  _203
REMARK   84  A    between atoms: _203  and  _204
REMARK   85  A    between atoms: _203  and  _206
REMARK   86  A    between atoms: _206  and  _207
REMARK   87  A    between atoms: _212  and  _213
REMARK   88  A    between atoms: _215  and  _217
REMARK   89  A    between atoms: _217  and  _218
REMARK   90  A    between atoms: _217  and  _220
REMARK   91  A    between atoms: _220  and  _221
REMARK   92  A    between atoms: _226  and  _228
REMARK   93  A    between atoms: _228  and  _229
REMARK   94  A    between atoms: _228  and  _231
REMARK   95  A    between atoms: _231  and  _232
REMARK   96  A    between atoms: _232  and  _233
REMARK   97  A    between atoms: _238  and  _240
REMARK   98  A    between atoms: _240  and  _241
REMARK   99  A    between atoms: _240  and  _243
REMARK  100  A    between atoms: _243  and  _244
REMARK  101  A    between atoms: _254  and  _256
REMARK  102  A    between atoms: _256  and  _257
REMARK  103  A    between atoms: _256  and  _259
REMARK  104  A    between atoms: _259  and  _260
REMARK  105  A    between atoms: _260  and  _261
REMARK  106  A    between atoms: _261  and  _262
REMARK  107  A    between atoms: _262  and  MG_396
REMARK  108  A    between atoms: _264  and  _266
REMARK  109  A    between atoms: _266  and  _267
REMARK  110  A    between atoms: _266  and  _269
REMARK  111  A    between atoms: _269  and  _270
REMARK  112  A    between atoms: _270  and  _271
REMARK  113  A    between atoms: _274  and  _276
REMARK  114  A    between atoms: _276  and  _277
REMARK  115  A    between atoms: _276  and  _279
REMARK  116  A    between atoms: _279  and  _280
REMARK  117  A    between atoms: _280  and  _281
REMARK  118  A    between atoms: _286  and  _288
REMARK  119  A    between atoms: _288  and  _289
REMARK  120  A    between atoms: _288  and  _291
REMARK  121  A    between atoms: _291  and  _292
REMARK  122  A    between atoms: _292  and  _293
REMARK  123  A    between atoms: _296  and  _298
REMARK  124  A    between atoms: _298  and  _299
REMARK  125  A    between atoms: _298  and  _301
REMARK  126  A    between atoms: _301  and  _302
REMARK  127  A    between atoms: _307  and  _309
REMARK  128  A    between atoms: _309  and  _310
REMARK  129  A    between atoms: _309  and  _312
REMARK  130  A    between atoms: _312  and  _313
REMARK  131  A    between atoms: _313  and  _314
REMARK  132  A    between atoms: _316  and  _318
REMARK  133  A    between atoms: _318  and  _319
REMARK  134  A    between atoms: _318  and  _321
REMARK  135  A    between atoms: _321  and  _322
REMARK  136  A    between atoms: _325  and  _327
REMARK  137  A    between atoms: _327  and  _328
REMARK  138  A    between atoms: _327  and  _330
REMARK  139  A    between atoms: _330  and  _331
REMARK  140  A    between atoms: _333  and  _335
REMARK  141  A    between atoms: _335  and  _336
REMARK  142  A    between atoms: _335  and  _338
REMARK  143  A    between atoms: _338  and  _339
REMARK  144  A    between atoms: _344  and  _346
REMARK  145  A    between atoms: _346  and  _347
REMARK  146  A    between atoms: _346  and  _349
REMARK  147  A    between atoms: _349  and  _350
REMARK  148  A    between atoms: _353  and  _355
REMARK  149  A    between atoms: _355  and  _356
REMARK  150  A    between atoms: _355  and  _358
REMARK  151  A    between atoms: _358  and  _359
REMARK  152  A    between atoms: _359  and  _360
REMARK  153  A    between atoms: _363  and  _365
REMARK  154  A    between atoms: _365  and  _366
REMARK  155  A    between atoms: _365  and  _368
REMARK  156  A    between atoms: _368  and  _369
REMARK  157  A    between atoms: _372  and  _374
REMARK  158  A    between atoms: _374  and  _375
REMARK  159  A    between atoms: _374  and  _377
REMARK  160  A    between atoms: _377  and  _378
REMARK  161  A    between atoms: _381  and  _383
REMARK  162  A    between atoms: _383  and  _384
REMARK  163  A    between atoms: _383  and  _386
REMARK  164  A    between atoms: _386  and  _387
REMARK  165  A    between atoms: _390  and  _392
REMARK  166  A    between atoms: _392  and  _393
REMARK                            x       y       z     vdW  Elec       q    Type
REMARK                         _______ _______ _______ _____ _____    ______ ____
ROOT
ATOM      1  O   HOH     1      45.477 -49.664  23.790  0.00  0.00    +0.000 OA
ENDROOT
TORSDOF 0
REMARK  Name = ../refined-set-2016/3uxk/3uxk_pocket.pdb
REMARK  166 active torsions:
REMARK  status: ('A' for Active; 'I' for Inactive)
REMARK    1  A    between atoms: _1  and  _3
REMARK    2  A    between atoms: _3  and  _4
REMARK    3  A    between atoms: _3  and  _6
REMARK    4  A    between atoms: _6  and  _7
REMARK    5  A    between atoms: _11  and  _12
REMARK    6  A    between atoms: _17  and  _19
REMARK    7  A    between atoms: _19  and  _20
REMARK    8  A    between atoms: _19  and  _22
REMARK    9  A    between atoms: _25  and  _27
REMARK   10  A    between atoms: _27  and  _28
REMARK   11  A    between atoms: _27  and  _30
REMARK   12  A    between atoms: _30  and  _31
REMARK   13  A    between atoms: _36  and  _38
REMARK   14  A    between atoms: _38  and  _39
REMARK   15  A    between atoms: _38  and  _41
REMARK   16  A    between atoms: _41  and  _42
REMARK   17  A    between atoms: _45  and  _47
REMARK   18  A    between atoms: _47  and  _48
REMARK   19  A    between atoms: _51  and  _53
REMARK   20  A    between atoms: _53  and  _54
REMARK   21  A    between atoms: _53  and  _56
REMARK   22  A    between atoms: _59  and  _61
REMARK   23  A    between atoms: _61  and  _62
REMARK   24  A    between atoms: _64  and  _66
REMARK   25  A    between atoms: _66  and  _67
REMARK   26  A    between atoms: _66  and  _69
REMARK   27  A    between atoms: _69  and  _70
REMARK   28  A    between atoms: _73  and  _75
REMARK   29  A    between atoms: _75  and  _76
REMARK   30  A    between atoms: _75  and  _78
REMARK   31  A    between atoms: _81  and  _83
REMARK   32  A    between atoms: _83  and  _84
REMARK   33  A    between atoms: _83  and  _86
REMARK   34  A    between atoms: _86  and  _87
REMARK   35  A    between atoms: _90  and  _92
REMARK   36  A    between atoms: _92  and  _93
REMARK   37  A    between atoms: _92  and  _95
REMARK   38  A    between atoms: _95  and  _96
REMARK   39  A    between atoms: _102  and  _104
REMARK   40  A    between atoms: _104  and  _105
REMARK   41  A    between atoms: _104  and  _107
REMARK   42  A    between atoms: _107  and  _108
REMARK   43  A    between atoms: _113  and  _114
REMARK   44  A    between atoms: _116  and  _118
REMARK   45  A    between atoms: _118  and  _119
REMARK   46  A    between atoms: _118  and  _121
REMARK   47  A    between atoms: _121  and  _122
REMARK   48  A    between atoms: _127  and  _128
REMARK   49  A    between atoms: _130  and  _132
REMARK   50  A    between atoms: _132  and  _133
REMARK   51  A    between atoms: _132  and  _135
REMARK   52  A    between atoms: _135  and  _136
REMARK   53  A    between atoms: _138  and  _140
REMARK   54  A    between atoms: _140  and  _141
REMARK   55  A    between atoms: _140  and  _143
REMARK   56  A    between atoms: _143  and  _144
REMARK   57  A    between atoms: _149  and  _151
REMARK   58  A    between atoms: _151  and  _152
REMARK   59  A    between atoms: _151  and  _154
REMARK   60  A    between atoms: _154  and  _155
REMARK   61  A    between atoms: _157  and  _159
REMARK   62  A    between atoms: _159  and  _160
REMARK   63  A    between atoms: _159  and  _162
REMARK   64  A    between atoms: _162  and  _163
REMARK   65  A    between atoms: _163  and  _164
REMARK   66  A    between atoms: _164  and  _165
REMARK   67  A    between atoms: _165  and  _166
REMARK   68  A    between atoms: _170  and  _172
REMARK   69  A    between atoms: _172  and  _173
REMARK   70  A    between atoms: _172  and  _175
REMARK   71  A    between atoms: _175  and  _176
REMARK   72  A    between atoms: _179  and  _181
REMARK   73  A    between atoms: _181  and  _182
REMARK   74  A    between atoms: _181  and  _184
REMARK   75  A    between atoms: _184  and  _185
REMARK   76  A    between atoms: _185  and  _186
REMARK   77  A    between atoms: _186  and  _187
REMARK   78  A    between atoms: _187  and  _188
REMARK   79  A    between atoms: _192  and  _194
REMARK   80  A    between atoms: _194  and  _195
REMARK   81  A    between atoms: _194  and  _197
REMARK   82  A    between atoms: _197  and  _198
REMARK   83  A    between atoms: _201  and  _203
REMARK   84  A    between atoms: _203  and  _204
REMARK   85  A    between atoms: _203  and  _206
REMARK   86  A    between atoms: _206  and  _207
REMARK   87  A    between atoms: _212  and  _213
REMARK   88  A    between atoms: _215  and  _217
REMARK   89  A    between atoms: _217  and  _218
REMARK   90  A    between atoms: _217  and  _220
REMARK   91  A    between atoms: _220  and  _221
REMARK   92  A    between atoms: _226  and  _228
REMARK   93  A    between atoms: _228  and  _229
REMARK   94  A    between atoms: _228  and  _231
REMARK   95  A    between atoms: _231  and  _232
REMARK   96  A    between atoms: _232  and  _233
REMARK   97  A    between atoms: _238  and  _240
REMARK   98  A    between atoms: _240  and  _241
REMARK   99  A    between atoms: _240  and  _243
REMARK  100  A    between atoms: _243  and  _244
REMARK  101  A    between atoms: _254  and  _256
REMARK  102  A    between atoms: _256  and  _257
REMARK  103  A    between atoms: _256  and  _259
REMARK  104  A    between atoms: _259  and  _260
REMARK  105  A    between atoms: _260  and  _261
REMARK  106  A    between atoms: _261  and  _262
REMARK  107  A    between atoms: _262  and  MG_396
REMARK  108  A    between atoms: _264  and  _266
REMARK  109  A    between atoms: _266  and  _267
REMARK  110  A    between atoms: _266  and  _269
REMARK  111  A    between atoms: _269  and  _270
REMARK  112  A    between atoms: _270  and  _271
REMARK  113  A    between atoms: _274  and  _276
REMARK  114  A    between atoms: _276  and  _277
REMARK  115  A    between atoms: _276  and  _279
REMARK  116  A    between atoms: _279  and  _280
REMARK  117  A    between atoms: _280  and  _281
REMARK  118  A    between atoms: _286  and  _288
REMARK  119  A    between atoms: _288  and  _289
REMARK  120  A    between atoms: _288  and  _291
REMARK  121  A    between atoms: _291  and  _292
REMARK  122  A    between atoms: _292  and  _293
REMARK  123  A    between atoms: _296  and  _298
REMARK  124  A    between atoms: _298  and  _299
REMARK  125  A    between atoms: _298  and  _301
REMARK  126  A    between atoms: _301  and  _302
REMARK  127  A    between atoms: _307  and  _309
REMARK  128  A    between atoms: _309  and  _310
REMARK  129  A    between atoms: _309  and  _312
REMARK  130  A    between atoms: _312  and  _313
REMARK  131  A    between atoms: _313  and  _314
REMARK  132  A    between atoms: _316  and  _318
REMARK  133  A    between atoms: _318  and  _319
REMARK  134  A    between atoms: _318  and  _321
REMARK  135  A    between atoms: _321  and  _322
REMARK  136  A    between atoms: _325  and  _327
REMARK  137  A    between atoms: _327  and  _328
REMARK  138  A    between atoms: _327  and  _330
REMARK  139  A    between atoms: _330  and  _331
REMARK  140  A    between atoms: _333  and  _335
REMARK  141  A    between atoms: _335  and  _336
REMARK  142  A    between atoms: _335  and  _338
REMARK  143  A    between atoms: _338  and  _339
REMARK  144  A    between atoms: _344  and  _346
REMARK  145  A    between atoms: _346  and  _347
REMARK  146  A    between atoms: _346  and  _349
REMARK  147  A    between atoms: _349  and  _350
REMARK  148  A    between atoms: _353  and  _355
REMARK  149  A    between atoms: _355  and  _356
REMARK  150  A    between atoms: _355  and  _358
REMARK  151  A    between atoms: _358  and  _359
REMARK  152  A    between atoms: _359  and  _360
REMARK  153  A    between atoms: _363  and  _365
REMARK  154  A    between atoms: _365  and  _366
REMARK  155  A    between atoms: _365  and  _368
REMARK  156  A    between atoms: _368  and  _369
REMARK  157  A    between atoms: _372  and  _374
REMARK  158  A    between atoms: _374  and  _375
REMARK  159  A    between atoms: _374  and  _377
REMARK  160  A    between atoms: _377  and  _378
REMARK  161  A    between atoms: _381  and  _383
REMARK  162  A    between atoms: _383  and  _384
REMARK  163  A    between atoms: _383  and  _386
REMARK  164  A    between atoms: _386  and  _387
REMARK  165  A    between atoms: _390  and  _392
REMARK  166  A    between atoms: _392  and  _393
REMARK                            x       y       z     vdW  Elec       q    Type
REMARK                         _______ _______ _______ _____ _____    ______ ____
ROOT
ATOM      1  O   HOH     1      54.508 -52.163  13.245  0.00  0.00    +0.000 OA
ENDROOT
TORSDOF 0
REMARK  Name = ../refined-set-2016/3uxk/3uxk_pocket.pdb
REMARK  166 active torsions:
REMARK  status: ('A' for Active; 'I' for Inactive)
REMARK    1  A    between atoms: _1  and  _3
REMARK    2  A    between atoms: _3  and  _4
REMARK    3  A    between atoms: _3  and  _6
REMARK    4  A    between atoms: _6  and  _7
REMARK    5  A    between atoms: _11  and  _12
REMARK    6  A    between atoms: _17  and  _19
REMARK    7  A    between atoms: _19  and  _20
REMARK    8  A    between atoms: _19  and  _22
REMARK    9  A    between atoms: _25  and  _27
REMARK   10  A    between atoms: _27  and  _28
REMARK   11  A    between atoms: _27  and  _30
REMARK   12  A    between atoms: _30  and  _31
REMARK   13  A    between atoms: _36  and  _38
REMARK   14  A    between atoms: _38  and  _39
REMARK   15  A    between atoms: _38  and  _41
REMARK   16  A    between atoms: _41  and  _42
REMARK   17  A    between atoms: _45  and  _47
REMARK   18  A    between atoms: _47  and  _48
REMARK   19  A    between atoms: _51  and  _53
REMARK   20  A    between atoms: _53  and  _54
REMARK   21  A    between atoms: _53  and  _56
REMARK   22  A    between atoms: _59  and  _61
REMARK   23  A    between atoms: _61  and  _62
REMARK   24  A    between atoms: _64  and  _66
REMARK   25  A    between atoms: _66  and  _67
REMARK   26  A    between atoms: _66  and  _69
REMARK   27  A    between atoms: _69  and  _70
REMARK   28  A    between atoms: _73  and  _75
REMARK   29  A    between atoms: _75  and  _76
REMARK   30  A    between atoms: _75  and  _78
REMARK   31  A    between atoms: _81  and  _83
REMARK   32  A    between atoms: _83  and  _84
REMARK   33  A    between atoms: _83  and  _86
REMARK   34  A    between atoms: _86  and  _87
REMARK   35  A    between atoms: _90  and  _92
REMARK   36  A    between atoms: _92  and  _93
REMARK   37  A    between atoms: _92  and  _95
REMARK   38  A    between atoms: _95  and  _96
REMARK   39  A    between atoms: _102  and  _104
REMARK   40  A    between atoms: _104  and  _105
REMARK   41  A    between atoms: _104  and  _107
REMARK   42  A    between atoms: _107  and  _108
REMARK   43  A    between atoms: _113  and  _114
REMARK   44  A    between atoms: _116  and  _118
REMARK   45  A    between atoms: _118  and  _119
REMARK   46  A    between atoms: _118  and  _121
REMARK   47  A    between atoms: _121  and  _122
REMARK   48  A    between atoms: _127  and  _128
REMARK   49  A    between atoms: _130  and  _132
REMARK   50  A    between atoms: _132  and  _133
REMARK   51  A    between atoms: _132  and  _135
REMARK   52  A    between atoms: _135  and  _136
REMARK   53  A    between atoms: _138  and  _140
REMARK   54  A    between atoms: _140  and  _141
REMARK   55  A    between atoms: _140  and  _143
REMARK   56  A    between atoms: _143  and  _144
REMARK   57  A    between atoms: _149  and  _151
REMARK   58  A    between atoms: _151  and  _152
REMARK   59  A    between atoms: _151  and  _154
REMARK   60  A    between atoms: _154  and  _155
REMARK   61  A    between atoms: _157  and  _159
REMARK   62  A    between atoms: _159  and  _160
REMARK   63  A    between atoms: _159  and  _162
REMARK   64  A    between atoms: _162  and  _163
REMARK   65  A    between atoms: _163  and  _164
REMARK   66  A    between atoms: _164  and  _165
REMARK   67  A    between atoms: _165  and  _166
REMARK   68  A    between atoms: _170  and  _172
REMARK   69  A    between atoms: _172  and  _173
REMARK   70  A    between atoms: _172  and  _175
REMARK   71  A    between atoms: _175  and  _176
REMARK   72  A    between atoms: _179  and  _181
REMARK   73  A    between atoms: _181  and  _182
REMARK   74  A    between atoms: _181  and  _184
REMARK   75  A    between atoms: _184  and  _185
REMARK   76  A    between atoms: _185  and  _186
REMARK   77  A    between atoms: _186  and  _187
REMARK   78  A    between atoms: _187  and  _188
REMARK   79  A    between atoms: _192  and  _194
REMARK   80  A    between atoms: _194  and  _195
REMARK   81  A    between atoms: _194  and  _197
REMARK   82  A    between atoms: _197  and  _198
REMARK   83  A    between atoms: _201  and  _203
REMARK   84  A    between atoms: _203  and  _204
REMARK   85  A    between atoms: _203  and  _206
REMARK   86  A    between atoms: _206  and  _207
REMARK   87  A    between atoms: _212  and  _213
REMARK   88  A    between atoms: _215  and  _217
REMARK   89  A    between atoms: _217  and  _218
REMARK   90  A    between atoms: _217  and  _220
REMARK   91  A    between atoms: _220  and  _221
REMARK   92  A    between atoms: _226  and  _228
REMARK   93  A    between atoms: _228  and  _229
REMARK   94  A    between atoms: _228  and  _231
REMARK   95  A    between atoms: _231  and  _232
REMARK   96  A    between atoms: _232  and  _233
REMARK   97  A    between atoms: _238  and  _240
REMARK   98  A    between atoms: _240  and  _241
REMARK   99  A    between atoms: _240  and  _243
REMARK  100  A    between atoms: _243  and  _244
REMARK  101  A    between atoms: _254  and  _256
REMARK  102  A    between atoms: _256  and  _257
REMARK  103  A    between atoms: _256  and  _259
REMARK  104  A    between atoms: _259  and  _260
REMARK  105  A    between atoms: _260  and  _261
REMARK  106  A    between atoms: _261  and  _262
REMARK  107  A    between atoms: _262  and  MG_396
REMARK  108  A    between atoms: _264  and  _266
REMARK  109  A    between atoms: _266  and  _267
REMARK  110  A    between atoms: _266  and  _269
REMARK  111  A    between atoms: _269  and  _270
REMARK  112  A    between atoms: _270  and  _271
REMARK  113  A    between atoms: _274  and  _276
REMARK  114  A    between atoms: _276  and  _277
REMARK  115  A    between atoms: _276  and  _279
REMARK  116  A    between atoms: _279  and  _280
REMARK  117  A    between atoms: _280  and  _281
REMARK  118  A    between atoms: _286  and  _288
REMARK  119  A    between atoms: _288  and  _289
REMARK  120  A    between atoms: _288  and  _291
REMARK  121  A    between atoms: _291  and  _292
REMARK  122  A    between atoms: _292  and  _293
REMARK  123  A    between atoms: _296  and  _298
REMARK  124  A    between atoms: _298  and  _299
REMARK  125  A    between atoms: _298  and  _301
REMARK  126  A    between atoms: _301  and  _302
REMARK  127  A    between atoms: _307  and  _309
REMARK  128  A    between atoms: _309  and  _310
REMARK  129  A    between atoms: _309  and  _312
REMARK  130  A    between atoms: _312  and  _313
REMARK  131  A    between atoms: _313  and  _314
REMARK  132  A    between atoms: _316  and  _318
REMARK  133  A    between atoms: _318  and  _319
REMARK  134  A    between atoms: _318  and  _321
REMARK  135  A    between atoms: _321  and  _322
REMARK  136  A    between atoms: _325  and  _327
REMARK  137  A    between atoms: _327  and  _328
REMARK  138  A    between atoms: _327  and  _330
REMARK  139  A    between atoms: _330  and  _331
REMARK  140  A    between atoms: _333  and  _335
REMARK  141  A    between atoms: _335  and  _336
REMARK  142  A    between atoms: _335  and  _338
REMARK  143  A    between atoms: _338  and  _339
REMARK  144  A    between atoms: _344  and  _346
REMARK  145  A    between atoms: _346  and  _347
REMARK  146  A    between atoms: _346  and  _349
REMARK  147  A    between atoms: _349  and  _350
REMARK  148  A    between atoms: _353  and  _355
REMARK  149  A    between atoms: _355  and  _356
REMARK  150  A    between atoms: _355  and  _358
REMARK  151  A    between atoms: _358  and  _359
REMARK  152  A    between atoms: _359  and  _360
REMARK  153  A    between atoms: _363  and  _365
REMARK  154  A    between atoms: _365  and  _366
REMARK  155  A    between atoms: _365  and  _368
REMARK  156  A    between atoms: _368  and  _369
REMARK  157  A    between atoms: _372  and  _374
REMARK  158  A    between atoms: _374  and  _375
REMARK  159  A    between atoms: _374  and  _377
REMARK  160  A    between atoms: _377  and  _378
REMARK  161  A    between atoms: _381  and  _383
REMARK  162  A    between atoms: _383  and  _384
REMARK  163  A    between atoms: _383  and  _386
REMARK  164  A    between atoms: _386  and  _387
REMARK  165  A    between atoms: _390  and  _392
REMARK  166  A    between atoms: _392  and  _393
REMARK                            x       y       z     vdW  Elec       q    Type
REMARK                         _______ _______ _______ _____ _____    ______ ____
ROOT
ATOM      1  O   HOH     1      51.238 -53.573  11.037  0.00  0.00    +0.000 OA
ENDROOT
TORSDOF 0
REMARK  Name = ../refined-set-2016/3uxk/3uxk_pocket.pdb
REMARK  166 active torsions:
REMARK  status: ('A' for Active; 'I' for Inactive)
REMARK    1  A    between atoms: _1  and  _3
REMARK    2  A    between atoms: _3  and  _4
REMARK    3  A    between atoms: _3  and  _6
REMARK    4  A    between atoms: _6  and  _7
REMARK    5  A    between atoms: _11  and  _12
REMARK    6  A    between atoms: _17  and  _19
REMARK    7  A    between atoms: _19  and  _20
REMARK    8  A    between atoms: _19  and  _22
REMARK    9  A    between atoms: _25  and  _27
REMARK   10  A    between atoms: _27  and  _28
REMARK   11  A    between atoms: _27  and  _30
REMARK   12  A    between atoms: _30  and  _31
REMARK   13  A    between atoms: _36  and  _38
REMARK   14  A    between atoms: _38  and  _39
REMARK   15  A    between atoms: _38  and  _41
REMARK   16  A    between atoms: _41  and  _42
REMARK   17  A    between atoms: _45  and  _47
REMARK   18  A    between atoms: _47  and  _48
REMARK   19  A    between atoms: _51  and  _53
REMARK   20  A    between atoms: _53  and  _54
REMARK   21  A    between atoms: _53  and  _56
REMARK   22  A    between atoms: _59  and  _61
REMARK   23  A    between atoms: _61  and  _62
REMARK   24  A    between atoms: _64  and  _66
REMARK   25  A    between atoms: _66  and  _67
REMARK   26  A    between atoms: _66  and  _69
REMARK   27  A    between atoms: _69  and  _70
REMARK   28  A    between atoms: _73  and  _75
REMARK   29  A    between atoms: _75  and  _76
REMARK   30  A    between atoms: _75  and  _78
REMARK   31  A    between atoms: _81  and  _83
REMARK   32  A    between atoms: _83  and  _84
REMARK   33  A    between atoms: _83  and  _86
REMARK   34  A    between atoms: _86  and  _87
REMARK   35  A    between atoms: _90  and  _92
REMARK   36  A    between atoms: _92  and  _93
REMARK   37  A    between atoms: _92  and  _95
REMARK   38  A    between atoms: _95  and  _96
REMARK   39  A    between atoms: _102  and  _104
REMARK   40  A    between atoms: _104  and  _105
REMARK   41  A    between atoms: _104  and  _107
REMARK   42  A    between atoms: _107  and  _108
REMARK   43  A    between atoms: _113  and  _114
REMARK   44  A    between atoms: _116  and  _118
REMARK   45  A    between atoms: _118  and  _119
REMARK   46  A    between atoms: _118  and  _121
REMARK   47  A    between atoms: _121  and  _122
REMARK   48  A    between atoms: _127  and  _128
REMARK   49  A    between atoms: _130  and  _132
REMARK   50  A    between atoms: _132  and  _133
REMARK   51  A    between atoms: _132  and  _135
REMARK   52  A    between atoms: _135  and  _136
REMARK   53  A    between atoms: _138  and  _140
REMARK   54  A    between atoms: _140  and  _141
REMARK   55  A    between atoms: _140  and  _143
REMARK   56  A    between atoms: _143  and  _144
REMARK   57  A    between atoms: _149  and  _151
REMARK   58  A    between atoms: _151  and  _152
REMARK   59  A    between atoms: _151  and  _154
REMARK   60  A    between atoms: _154  and  _155
REMARK   61  A    between atoms: _157  and  _159
REMARK   62  A    between atoms: _159  and  _160
REMARK   63  A    between atoms: _159  and  _162
REMARK   64  A    between atoms: _162  and  _163
REMARK   65  A    between atoms: _163  and  _164
REMARK   66  A    between atoms: _164  and  _165
REMARK   67  A    between atoms: _165  and  _166
REMARK   68  A    between atoms: _170  and  _172
REMARK   69  A    between atoms: _172  and  _173
REMARK   70  A    between atoms: _172  and  _175
REMARK   71  A    between atoms: _175  and  _176
REMARK   72  A    between atoms: _179  and  _181
REMARK   73  A    between atoms: _181  and  _182
REMARK   74  A    between atoms: _181  and  _184
REMARK   75  A    between atoms: _184  and  _185
REMARK   76  A    between atoms: _185  and  _186
REMARK   77  A    between atoms: _186  and  _187
REMARK   78  A    between atoms: _187  and  _188
REMARK   79  A    between atoms: _192  and  _194
REMARK   80  A    between atoms: _194  and  _195
REMARK   81  A    between atoms: _194  and  _197
REMARK   82  A    between atoms: _197  and  _198
REMARK   83  A    between atoms: _201  and  _203
REMARK   84  A    between atoms: _203  and  _204
REMARK   85  A    between atoms: _203  and  _206
REMARK   86  A    between atoms: _206  and  _207
REMARK   87  A    between atoms: _212  and  _213
REMARK   88  A    between atoms: _215  and  _217
REMARK   89  A    between atoms: _217  and  _218
REMARK   90  A    between atoms: _217  and  _220
REMARK   91  A    between atoms: _220  and  _221
REMARK   92  A    between atoms: _226  and  _228
REMARK   93  A    between atoms: _228  and  _229
REMARK   94  A    between atoms: _228  and  _231
REMARK   95  A    between atoms: _231  and  _232
REMARK   96  A    between atoms: _232  and  _233
REMARK   97  A    between atoms: _238  and  _240
REMARK   98  A    between atoms: _240  and  _241
REMARK   99  A    between atoms: _240  and  _243
REMARK  100  A    between atoms: _243  and  _244
REMARK  101  A    between atoms: _254  and  _256
REMARK  102  A    between atoms: _256  and  _257
REMARK  103  A    between atoms: _256  and  _259
REMARK  104  A    between atoms: _259  and  _260
REMARK  105  A    between atoms: _260  and  _261
REMARK  106  A    between atoms: _261  and  _262
REMARK  107  A    between atoms: _262  and  MG_396
REMARK  108  A    between atoms: _264  and  _266
REMARK  109  A    between atoms: _266  and  _267
REMARK  110  A    between atoms: _266  and  _269
REMARK  111  A    between atoms: _269  and  _270
REMARK  112  A    between atoms: _270  and  _271
REMARK  113  A    between atoms: _274  and  _276
REMARK  114  A    between atoms: _276  and  _277
REMARK  115  A    between atoms: _276  and  _279
REMARK  116  A    between atoms: _279  and  _280
REMARK  117  A    between atoms: _280  and  _281
REMARK  118  A    between atoms: _286  and  _288
REMARK  119  A    between atoms: _288  and  _289
REMARK  120  A    between atoms: _288  and  _291
REMARK  121  A    between atoms: _291  and  _292
REMARK  122  A    between atoms: _292  and  _293
REMARK  123  A    between atoms: _296  and  _298
REMARK  124  A    between atoms: _298  and  _299
REMARK  125  A    between atoms: _298  and  _301
REMARK  126  A    between atoms: _301  and  _302
REMARK  127  A    between atoms: _307  and  _309
REMARK  128  A    between atoms: _309  and  _310
REMARK  129  A    between atoms: _309  and  _312
REMARK  130  A    between atoms: _312  and  _313
REMARK  131  A    between atoms: _313  and  _314
REMARK  132  A    between atoms: _316  and  _318
REMARK  133  A    between atoms: _318  and  _319
REMARK  134  A    between atoms: _318  and  _321
REMARK  135  A    between atoms: _321  and  _322
REMARK  136  A    between atoms: _325  and  _327
REMARK  137  A    between atoms: _327  and  _328
REMARK  138  A    between atoms: _327  and  _330
REMARK  139  A    between atoms: _330  and  _331
REMARK  140  A    between atoms: _333  and  _335
REMARK  141  A    between atoms: _335  and  _336
REMARK  142  A    between atoms: _335  and  _338
REMARK  143  A    between atoms: _338  and  _339
REMARK  144  A    between atoms: _344  and  _346
REMARK  145  A    between atoms: _346  and  _347
REMARK  146  A    between atoms: _346  and  _349
REMARK  147  A    between atoms: _349  and  _350
REMARK  148  A    between atoms: _353  and  _355
REMARK  149  A    between atoms: _355  and  _356
REMARK  150  A    between atoms: _355  and  _358
REMARK  151  A    between atoms: _358  and  _359
REMARK  152  A    between atoms: _359  and  _360
REMARK  153  A    between atoms: _363  and  _365
REMARK  154  A    between atoms: _365  and  _366
REMARK  155  A    between atoms: _365  and  _368
REMARK  156  A    between atoms: _368  and  _369
REMARK  157  A    between atoms: _372  and  _374
REMARK  158  A    between atoms: _374  and  _375
REMARK  159  A    between atoms: _374  and  _377
REMARK  160  A    between atoms: _377  and  _378
REMARK  161  A    between atoms: _381  and  _383
REMARK  162  A    between atoms: _383  and  _384
REMARK  163  A    between atoms: _383  and  _386
REMARK  164  A    between atoms: _386  and  _387
REMARK  165  A    between atoms: _390  and  _392
REMARK  166  A    between atoms: _392  and  _393
REMARK                            x       y       z     vdW  Elec       q    Type
REMARK                         _______ _______ _______ _____ _____    ______ ____
ROOT
ATOM      1  O   HOH     1      42.783 -53.219  14.863  0.00  0.00    +0.000 OA
ENDROOT
TORSDOF 0
REMARK  Name = ../refined-set-2016/3uxk/3uxk_pocket.pdb
REMARK  166 active torsions:
REMARK  status: ('A' for Active; 'I' for Inactive)
REMARK    1  A    between atoms: _1  and  _3
REMARK    2  A    between atoms: _3  and  _4
REMARK    3  A    between atoms: _3  and  _6
REMARK    4  A    between atoms: _6  and  _7
REMARK    5  A    between atoms: _11  and  _12
REMARK    6  A    between atoms: _17  and  _19
REMARK    7  A    between atoms: _19  and  _20
REMARK    8  A    between atoms: _19  and  _22
REMARK    9  A    between atoms: _25  and  _27
REMARK   10  A    between atoms: _27  and  _28
REMARK   11  A    between atoms: _27  and  _30
REMARK   12  A    between atoms: _30  and  _31
REMARK   13  A    between atoms: _36  and  _38
REMARK   14  A    between atoms: _38  and  _39
REMARK   15  A    between atoms: _38  and  _41
REMARK   16  A    between atoms: _41  and  _42
REMARK   17  A    between atoms: _45  and  _47
REMARK   18  A    between atoms: _47  and  _48
REMARK   19  A    between atoms: _51  and  _53
REMARK   20  A    between atoms: _53  and  _54
REMARK   21  A    between atoms: _53  and  _56
REMARK   22  A    between atoms: _59  and  _61
REMARK   23  A    between atoms: _61  and  _62
REMARK   24  A    between atoms: _64  and  _66
REMARK   25  A    between atoms: _66  and  _67
REMARK   26  A    between atoms: _66  and  _69
REMARK   27  A    between atoms: _69  and  _70
REMARK   28  A    between atoms: _73  and  _75
REMARK   29  A    between atoms: _75  and  _76
REMARK   30  A    between atoms: _75  and  _78
REMARK   31  A    between atoms: _81  and  _83
REMARK   32  A    between atoms: _83  and  _84
REMARK   33  A    between atoms: _83  and  _86
REMARK   34  A    between atoms: _86  and  _87
REMARK   35  A    between atoms: _90  and  _92
REMARK   36  A    between atoms: _92  and  _93
REMARK   37  A    between atoms: _92  and  _95
REMARK   38  A    between atoms: _95  and  _96
REMARK   39  A    between atoms: _102  and  _104
REMARK   40  A    between atoms: _104  and  _105
REMARK   41  A    between atoms: _104  and  _107
REMARK   42  A    between atoms: _107  and  _108
REMARK   43  A    between atoms: _113  and  _114
REMARK   44  A    between atoms: _116  and  _118
REMARK   45  A    between atoms: _118  and  _119
REMARK   46  A    between atoms: _118  and  _121
REMARK   47  A    between atoms: _121  and  _122
REMARK   48  A    between atoms: _127  and  _128
REMARK   49  A    between atoms: _130  and  _132
REMARK   50  A    between atoms: _132  and  _133
REMARK   51  A    between atoms: _132  and  _135
REMARK   52  A    between atoms: _135  and  _136
REMARK   53  A    between atoms: _138  and  _140
REMARK   54  A    between atoms: _140  and  _141
REMARK   55  A    between atoms: _140  and  _143
REMARK   56  A    between atoms: _143  and  _144
REMARK   57  A    between atoms: _149  and  _151
REMARK   58  A    between atoms: _151  and  _152
REMARK   59  A    between atoms: _151  and  _154
REMARK   60  A    between atoms: _154  and  _155
REMARK   61  A    between atoms: _157  and  _159
REMARK   62  A    between atoms: _159  and  _160
REMARK   63  A    between atoms: _159  and  _162
REMARK   64  A    between atoms: _162  and  _163
REMARK   65  A    between atoms: _163  and  _164
REMARK   66  A    between atoms: _164  and  _165
REMARK   67  A    between atoms: _165  and  _166
REMARK   68  A    between atoms: _170  and  _172
REMARK   69  A    between atoms: _172  and  _173
REMARK   70  A    between atoms: _172  and  _175
REMARK   71  A    between atoms: _175  and  _176
REMARK   72  A    between atoms: _179  and  _181
REMARK   73  A    between atoms: _181  and  _182
REMARK   74  A    between atoms: _181  and  _184
REMARK   75  A    between atoms: _184  and  _185
REMARK   76  A    between atoms: _185  and  _186
REMARK   77  A    between atoms: _186  and  _187
REMARK   78  A    between atoms: _187  and  _188
REMARK   79  A    between atoms: _192  and  _194
REMARK   80  A    between atoms: _194  and  _195
REMARK   81  A    between atoms: _194  and  _197
REMARK   82  A    between atoms: _197  and  _198
REMARK   83  A    between atoms: _201  and  _203
REMARK   84  A    between atoms: _203  and  _204
REMARK   85  A    between atoms: _203  and  _206
REMARK   86  A    between atoms: _206  and  _207
REMARK   87  A    between atoms: _212  and  _213
REMARK   88  A    between atoms: _215  and  _217
REMARK   89  A    between atoms: _217  and  _218
REMARK   90  A    between atoms: _217  and  _220
REMARK   91  A    between atoms: _220  and  _221
REMARK   92  A    between atoms: _226  and  _228
REMARK   93  A    between atoms: _228  and  _229
REMARK   94  A    between atoms: _228  and  _231
REMARK   95  A    between atoms: _231  and  _232
REMARK   96  A    between atoms: _232  and  _233
REMARK   97  A    between atoms: _238  and  _240
REMARK   98  A    between atoms: _240  and  _241
REMARK   99  A    between atoms: _240  and  _243
REMARK  100  A    between atoms: _243  and  _244
REMARK  101  A    between atoms: _254  and  _256
REMARK  102  A    between atoms: _256  and  _257
REMARK  103  A    between atoms: _256  and  _259
REMARK  104  A    between atoms: _259  and  _260
REMARK  105  A    between atoms: _260  and  _261
REMARK  106  A    between atoms: _261  and  _262
REMARK  107  A    between atoms: _262  and  MG_396
REMARK  108  A    between atoms: _264  and  _266
REMARK  109  A    between atoms: _266  and  _267
REMARK  110  A    between atoms: _266  and  _269
REMARK  111  A    between atoms: _269  and  _270
REMARK  112  A    between atoms: _270  and  _271
REMARK  113  A    between atoms: _274  and  _276
REMARK  114  A    between atoms: _276  and  _277
REMARK  115  A    between atoms: _276  and  _279
REMARK  116  A    between atoms: _279  and  _280
REMARK  117  A    between atoms: _280  and  _281
REMARK  118  A    between atoms: _286  and  _288
REMARK  119  A    between atoms: _288  and  _289
REMARK  120  A    between atoms: _288  and  _291
REMARK  121  A    between atoms: _291  and  _292
REMARK  122  A    between atoms: _292  and  _293
REMARK  123  A    between atoms: _296  and  _298
REMARK  124  A    between atoms: _298  and  _299
REMARK  125  A    between atoms: _298  and  _301
REMARK  126  A    between atoms: _301  and  _302
REMARK  127  A    between atoms: _307  and  _309
REMARK  128  A    between atoms: _309  and  _310
REMARK  129  A    between atoms: _309  and  _312
REMARK  130  A    between atoms: _312  and  _313
REMARK  131  A    between atoms: _313  and  _314
REMARK  132  A    between atoms: _316  and  _318
REMARK  133  A    between atoms: _318  and  _319
REMARK  134  A    between atoms: _318  and  _321
REMARK  135  A    between atoms: _321  and  _322
REMARK  136  A    between atoms: _325  and  _327
REMARK  137  A    between atoms: _327  and  _328
REMARK  138  A    between atoms: _327  and  _330
REMARK  139  A    between atoms: _330  and  _331
REMARK  140  A    between atoms: _333  and  _335
REMARK  141  A    between atoms: _335  and  _336
REMARK  142  A    between atoms: _335  and  _338
REMARK  143  A    between atoms: _338  and  _339
REMARK  144  A    between atoms: _344  and  _346
REMARK  145  A    between atoms: _346  and  _347
REMARK  146  A    between atoms: _346  and  _349
REMARK  147  A    between atoms: _349  and  _350
REMARK  148  A    between atoms: _353  and  _355
REMARK  149  A    between atoms: _355  and  _356
REMARK  150  A    between atoms: _355  and  _358
REMARK  151  A    between atoms: _358  and  _359
REMARK  152  A    between atoms: _359  and  _360
REMARK  153  A    between atoms: _363  and  _365
REMARK  154  A    between atoms: _365  and  _366
REMARK  155  A    between atoms: _365  and  _368
REMARK  156  A    between atoms: _368  and  _369
REMARK  157  A    between atoms: _372  and  _374
REMARK  158  A    between atoms: _374  and  _375
REMARK  159  A    between atoms: _374  and  _377
REMARK  160  A    between atoms: _377  and  _378
REMARK  161  A    between atoms: _381  and  _383
REMARK  162  A    between atoms: _383  and  _384
REMARK  163  A    between atoms: _383  and  _386
REMARK  164  A    between atoms: _386  and  _387
REMARK  165  A    between atoms: _390  and  _392
REMARK  166  A    between atoms: _392  and  _393
REMARK                            x       y       z     vdW  Elec       q    Type
REMARK                         _______ _______ _______ _____ _____    ______ ____
ROOT
ATOM      1  O   HOH     1      55.360 -45.145  12.100  0.00  0.00    +0.000 OA
ENDROOT
TORSDOF 0
