REMARK  Name = ../refined-set-2016/1z95/1z95_pocket.pdb
REMARK  279 active torsions:
REMARK  status: ('A' for Active; 'I' for Inactive)
REMARK    1  A    between atoms: _1  and  _3
REMARK    2  A    between atoms: _3  and  _4
REMARK    3  A    between atoms: _3  and  _6
REMARK    4  A    between atoms: _9  and  _11
REMARK    5  A    between atoms: _11  and  _12
REMARK    6  A    between atoms: _15  and  _17
REMARK    7  A    between atoms: _17  and  _18
REMARK    8  A    between atoms: _17  and  _20
REMARK    9  A    between atoms: _20  and  _21
REMARK   10  A    between atoms: _27  and  _29
REMARK   11  A    between atoms: _29  and  _30
REMARK   12  A    between atoms: _29  and  _32
REMARK   13  A    between atoms: _32  and  _33
REMARK   14  A    between atoms: _36  and  _38
REMARK   15  A    between atoms: _38  and  _39
REMARK   16  A    between atoms: _38  and  _41
REMARK   17  A    between atoms: _41  and  _42
REMARK   18  A    between atoms: _45  and  _47
REMARK   19  A    between atoms: _47  and  _48
REMARK   20  A    between atoms: _47  and  _50
REMARK   21  A    between atoms: _50  and  _51
REMARK   22  A    between atoms: _53  and  _55
REMARK   23  A    between atoms: _55  and  _56
REMARK   24  A    between atoms: _55  and  _58
REMARK   25  A    between atoms: _58  and  _59
REMARK   26  A    between atoms: _61  and  _63
REMARK   27  A    between atoms: _63  and  _64
REMARK   28  A    between atoms: _63  and  _66
REMARK   29  A    between atoms: _66  and  _67
REMARK   30  A    between atoms: _70  and  _72
REMARK   31  A    between atoms: _72  and  _73
REMARK   32  A    between atoms: _72  and  _75
REMARK   33  A    between atoms: _75  and  _76
REMARK   34  A    between atoms: _81  and  _83
REMARK   35  A    between atoms: _83  and  _84
REMARK   36  A    between atoms: _83  and  _86
REMARK   37  A    between atoms: _86  and  _87
REMARK   38  A    between atoms: _87  and  _88
REMARK   39  A    between atoms: _91  and  _93
REMARK   40  A    between atoms: _93  and  _94
REMARK   41  A    between atoms: _93  and  _96
REMARK   42  A    between atoms: _96  and  _97
REMARK   43  A    between atoms: _100  and  _102
REMARK   44  A    between atoms: _102  and  _103
REMARK   45  A    between atoms: _105  and  _107
REMARK   46  A    between atoms: _107  and  _108
REMARK   47  A    between atoms: _107  and  _110
REMARK   48  A    between atoms: _110  and  _111
REMARK   49  A    between atoms: _111  and  _112
REMARK   50  A    between atoms: _115  and  _117
REMARK   51  A    between atoms: _117  and  _118
REMARK   52  A    between atoms: _117  and  _120
REMARK   53  A    between atoms: _120  and  _121
REMARK   54  A    between atoms: _121  and  _122
REMARK   55  A    between atoms: _122  and  _123
REMARK   56  A    between atoms: _132  and  _134
REMARK   57  A    between atoms: _134  and  _135
REMARK   58  A    between atoms: _134  and  _137
REMARK   59  A    between atoms: _137  and  _138
REMARK   60  A    between atoms: _138  and  _139
REMARK   61  A    between atoms: _144  and  _146
REMARK   62  A    between atoms: _146  and  _147
REMARK   63  A    between atoms: _146  and  _149
REMARK   64  A    between atoms: _149  and  _150
REMARK   65  A    between atoms: _153  and  _155
REMARK   66  A    between atoms: _155  and  _156
REMARK   67  A    between atoms: _155  and  _158
REMARK   68  A    between atoms: _158  and  _159
REMARK   69  A    between atoms: _162  and  _164
REMARK   70  A    between atoms: _164  and  _165
REMARK   71  A    between atoms: _164  and  _167
REMARK   72  A    between atoms: _167  and  _168
REMARK   73  A    between atoms: _168  and  _169
REMARK   74  A    between atoms: _174  and  _176
REMARK   75  A    between atoms: _176  and  _177
REMARK   76  A    between atoms: _176  and  _179
REMARK   77  A    between atoms: _179  and  _180
REMARK   78  A    between atoms: _185  and  _186
REMARK   79  A    between atoms: _188  and  _190
REMARK   80  A    between atoms: _190  and  _191
REMARK   81  A    between atoms: _190  and  _193
REMARK   82  A    between atoms: _193  and  _194
REMARK   83  A    between atoms: _196  and  _198
REMARK   84  A    between atoms: _198  and  _199
REMARK   85  A    between atoms: _198  and  _201
REMARK   86  A    between atoms: _201  and  _202
REMARK   87  A    between atoms: _205  and  _207
REMARK   88  A    between atoms: _207  and  _208
REMARK   89  A    between atoms: _207  and  _210
REMARK   90  A    between atoms: _210  and  _211
REMARK   91  A    between atoms: _211  and  _212
REMARK   92  A    between atoms: _214  and  _216
REMARK   93  A    between atoms: _216  and  _217
REMARK   94  A    between atoms: _219  and  _221
REMARK   95  A    between atoms: _221  and  _222
REMARK   96  A    between atoms: _221  and  _224
REMARK   97  A    between atoms: _224  and  _225
REMARK   98  A    between atoms: _228  and  _230
REMARK   99  A    between atoms: _230  and  _231
REMARK  100  A    between atoms: _230  and  _233
REMARK  101  A    between atoms: _233  and  _234
REMARK  102  A    between atoms: _234  and  _235
REMARK  103  A    between atoms: _237  and  _239
REMARK  104  A    between atoms: _239  and  _240
REMARK  105  A    between atoms: _239  and  _242
REMARK  106  A    between atoms: _245  and  _247
REMARK  107  A    between atoms: _247  and  _248
REMARK  108  A    between atoms: _247  and  _250
REMARK  109  A    between atoms: _250  and  _251
REMARK  110  A    between atoms: _257  and  _259
REMARK  111  A    between atoms: _259  and  _260
REMARK  112  A    between atoms: _263  and  _265
REMARK  113  A    between atoms: _265  and  _266
REMARK  114  A    between atoms: _265  and  _268
REMARK  115  A    between atoms: _268  and  _269
REMARK  116  A    between atoms: _269  and  _270
REMARK  117  A    between atoms: _272  and  _274
REMARK  118  A    between atoms: _274  and  _275
REMARK  119  A    between atoms: _277  and  _279
REMARK  120  A    between atoms: _279  and  _280
REMARK  121  A    between atoms: _279  and  _282
REMARK  122  A    between atoms: _282  and  _283
REMARK  123  A    between atoms: _293  and  _295
REMARK  124  A    between atoms: _295  and  _296
REMARK  125  A    between atoms: _295  and  _298
REMARK  126  A    between atoms: _298  and  _299
REMARK  127  A    between atoms: _299  and  _300
REMARK  128  A    between atoms: _300  and  _301
REMARK  129  A    between atoms: _310  and  _312
REMARK  130  A    between atoms: _312  and  _313
REMARK  131  A    between atoms: _312  and  _315
REMARK  132  A    between atoms: _315  and  _316
REMARK  133  A    between atoms: _318  and  _320
REMARK  134  A    between atoms: _320  and  _321
REMARK  135  A    between atoms: _320  and  _323
REMARK  136  A    between atoms: _323  and  _324
REMARK  137  A    between atoms: _327  and  _329
REMARK  138  A    between atoms: _329  and  _330
REMARK  139  A    between atoms: _329  and  _332
REMARK  140  A    between atoms: _332  and  _333
REMARK  141  A    between atoms: _338  and  _339
REMARK  142  A    between atoms: _341  and  _343
REMARK  143  A    between atoms: _343  and  _344
REMARK  144  A    between atoms: _343  and  _346
REMARK  145  A    between atoms: _346  and  _347
REMARK  146  A    between atoms: _353  and  _355
REMARK  147  A    between atoms: _355  and  _356
REMARK  148  A    between atoms: _359  and  _361
REMARK  149  A    between atoms: _361  and  _362
REMARK  150  A    between atoms: _361  and  _364
REMARK  151  A    between atoms: _364  and  _365
REMARK  152  A    between atoms: _368  and  _370
REMARK  153  A    between atoms: _370  and  _371
REMARK  154  A    between atoms: _370  and  _373
REMARK  155  A    between atoms: _373  and  _374
REMARK  156  A    between atoms: _380  and  _382
REMARK  157  A    between atoms: _382  and  _383
REMARK  158  A    between atoms: _382  and  _385
REMARK  159  A    between atoms: _385  and  _386
REMARK  160  A    between atoms: _388  and  _390
REMARK  161  A    between atoms: _390  and  _391
REMARK  162  A    between atoms: _390  and  _393
REMARK  163  A    between atoms: _393  and  _394
REMARK  164  A    between atoms: _394  and  _395
REMARK  165  A    between atoms: _397  and  _399
REMARK  166  A    between atoms: _399  and  _400
REMARK  167  A    between atoms: _399  and  _402
REMARK  168  A    between atoms: _402  and  _403
REMARK  169  A    between atoms: _403  and  _404
REMARK  170  A    between atoms: _409  and  _411
REMARK  171  A    between atoms: _411  and  _412
REMARK  172  A    between atoms: _411  and  _414
REMARK  173  A    between atoms: _416  and  _418
REMARK  174  A    between atoms: _418  and  _419
REMARK  175  A    between atoms: _418  and  _421
REMARK  176  A    between atoms: _421  and  _422
REMARK  177  A    between atoms: _422  and  _423
REMARK  178  A    between atoms: _425  and  _427
REMARK  179  A    between atoms: _427  and  _428
REMARK  180  A    between atoms: _427  and  _430
REMARK  181  A    between atoms: _430  and  _431
REMARK  182  A    between atoms: _434  and  _436
REMARK  183  A    between atoms: _436  and  _437
REMARK  184  A    between atoms: _436  and  _439
REMARK  185  A    between atoms: _439  and  _440
REMARK  186  A    between atoms: _443  and  _445
REMARK  187  A    between atoms: _445  and  _446
REMARK  188  A    between atoms: _445  and  _448
REMARK  189  A    between atoms: _451  and  _453
REMARK  190  A    between atoms: _453  and  _454
REMARK  191  A    between atoms: _453  and  _456
REMARK  192  A    between atoms: _456  and  _457
REMARK  193  A    between atoms: _460  and  _462
REMARK  194  A    between atoms: _462  and  _463
REMARK  195  A    between atoms: _466  and  _468
REMARK  196  A    between atoms: _468  and  _469
REMARK  197  A    between atoms: _468  and  _471
REMARK  198  A    between atoms: _471  and  _472
REMARK  199  A    between atoms: _475  and  _477
REMARK  200  A    between atoms: _477  and  _478
REMARK  201  A    between atoms: _477  and  _480
REMARK  202  A    between atoms: _480  and  _481
REMARK  203  A    between atoms: _486  and  _488
REMARK  204  A    between atoms: _488  and  _489
REMARK  205  A    between atoms: _488  and  _491
REMARK  206  A    between atoms: _491  and  _492
REMARK  207  A    between atoms: _498  and  _500
REMARK  208  A    between atoms: _500  and  _501
REMARK  209  A    between atoms: _500  and  _503
REMARK  210  A    between atoms: _503  and  _504
REMARK  211  A    between atoms: _507  and  _509
REMARK  212  A    between atoms: _509  and  _510
REMARK  213  A    between atoms: _509  and  _512
REMARK  214  A    between atoms: _512  and  _513
REMARK  215  A    between atoms: _519  and  _521
REMARK  216  A    between atoms: _521  and  _522
REMARK  217  A    between atoms: _521  and  _524
REMARK  218  A    between atoms: _524  and  _525
REMARK  219  A    between atoms: _528  and  _530
REMARK  220  A    between atoms: _530  and  _531
REMARK  221  A    between atoms: _530  and  _533
REMARK  222  A    between atoms: _533  and  _534
REMARK  223  A    between atoms: _537  and  _539
REMARK  224  A    between atoms: _539  and  _540
REMARK  225  A    between atoms: _539  and  _542
REMARK  226  A    between atoms: _545  and  _547
REMARK  227  A    between atoms: _547  and  _548
REMARK  228  A    between atoms: _547  and  _550
REMARK  229  A    between atoms: _550  and  _551
REMARK  230  A    between atoms: _554  and  _556
REMARK  231  A    between atoms: _556  and  _557
REMARK  232  A    between atoms: _556  and  _559
REMARK  233  A    between atoms: _559  and  _560
REMARK  234  A    between atoms: _567  and  _568
REMARK  235  A    between atoms: _573  and  _575
REMARK  236  A    between atoms: _575  and  _576
REMARK  237  A    between atoms: _575  and  _578
REMARK  238  A    between atoms: _578  and  _579
REMARK  239  A    between atoms: _579  and  _580
REMARK  240  A    between atoms: _582  and  _584
REMARK  241  A    between atoms: _584  and  _585
REMARK  242  A    between atoms: _584  and  _587
REMARK  243  A    between atoms: _587  and  _588
REMARK  244  A    between atoms: _588  and  _589
REMARK  245  A    between atoms: _591  and  _593
REMARK  246  A    between atoms: _593  and  _594
REMARK  247  A    between atoms: _597  and  _599
REMARK  248  A    between atoms: _599  and  _600
REMARK  249  A    between atoms: _599  and  _602
REMARK  250  A    between atoms: _602  and  _603
REMARK  251  A    between atoms: _603  and  _604
REMARK  252  A    between atoms: _607  and  _609
REMARK  253  A    between atoms: _609  and  _610
REMARK  254  A    between atoms: _609  and  _612
REMARK  255  A    between atoms: _612  and  _613
REMARK  256  A    between atoms: _616  and  _618
REMARK  257  A    between atoms: _618  and  _619
REMARK  258  A    between atoms: _618  and  _621
REMARK  259  A    between atoms: _621  and  _622
REMARK  260  A    between atoms: _625  and  _627
REMARK  261  A    between atoms: _627  and  _628
REMARK  262  A    between atoms: _627  and  _630
REMARK  263  A    between atoms: _630  and  _631
REMARK  264  A    between atoms: _633  and  _635
REMARK  265  A    between atoms: _635  and  _636
REMARK  266  A    between atoms: _635  and  _638
REMARK  267  A    between atoms: _641  and  _643
REMARK  268  A    between atoms: _643  and  _644
REMARK  269  A    between atoms: _643  and  _646
REMARK  270  A    between atoms: _646  and  _647
REMARK  271  A    between atoms: _647  and  _648
REMARK  272  A    between atoms: _653  and  _655
REMARK  273  A    between atoms: _655  and  _656
REMARK  274  A    between atoms: _655  and  _658
REMARK  275  A    between atoms: _662  and  _663
REMARK  276  A    between atoms: _668  and  _670
REMARK  277  A    between atoms: _670  and  _671
REMARK  278  A    between atoms: _670  and  _673
REMARK  279  A    between atoms: _673  and  _674
REMARK                            x       y       z     vdW  Elec       q    Type
REMARK                         _______ _______ _______ _____ _____    ______ ____
ROOT
ATOM      1  CA  VAL A   1      28.941  14.944   3.251  0.00  0.00    +0.133 C 
ENDROOT
BRANCH   1   2
ATOM      2  CB  VAL A   1      28.981  13.963   4.448  0.00  0.00    +0.023 C 
ATOM      3  CG2 VAL A   1      28.744  14.722   5.748  0.00  0.00    +0.002 C 
ATOM      4  CG1 VAL A   1      30.319  13.230   4.483  0.00  0.00    +0.002 C 
ENDBRANCH   1   2
BRANCH   1   5
ATOM      5  N   VAL A   1      27.666  15.650   3.194  0.00  0.00    -0.239 NA
ATOM      6  H   VAL A   1      26.803  15.116   2.965  0.00  0.00    +0.142 HD
ENDBRANCH   1   5
BRANCH   1   7
ATOM      7  C   VAL A   1      29.146  14.159   1.956  0.00  0.00    +0.224 C 
ATOM      8  O   VAL A   1      28.314  13.329   1.589  0.00  0.00    -0.287 OA
ENDBRANCH   1   7
TORSDOF 3
REMARK  Name = ../refined-set-2016/1z95/1z95_pocket.pdb
REMARK  279 active torsions:
REMARK  status: ('A' for Active; 'I' for Inactive)
REMARK    1  A    between atoms: _1  and  _3
REMARK    2  A    between atoms: _3  and  _4
REMARK    3  A    between atoms: _3  and  _6
REMARK    4  A    between atoms: _9  and  _11
REMARK    5  A    between atoms: _11  and  _12
REMARK    6  A    between atoms: _15  and  _17
REMARK    7  A    between atoms: _17  and  _18
REMARK    8  A    between atoms: _17  and  _20
REMARK    9  A    between atoms: _20  and  _21
REMARK   10  A    between atoms: _27  and  _29
REMARK   11  A    between atoms: _29  and  _30
REMARK   12  A    between atoms: _29  and  _32
REMARK   13  A    between atoms: _32  and  _33
REMARK   14  A    between atoms: _36  and  _38
REMARK   15  A    between atoms: _38  and  _39
REMARK   16  A    between atoms: _38  and  _41
REMARK   17  A    between atoms: _41  and  _42
REMARK   18  A    between atoms: _45  and  _47
REMARK   19  A    between atoms: _47  and  _48
REMARK   20  A    between atoms: _47  and  _50
REMARK   21  A    between atoms: _50  and  _51
REMARK   22  A    between atoms: _53  and  _55
REMARK   23  A    between atoms: _55  and  _56
REMARK   24  A    between atoms: _55  and  _58
REMARK   25  A    between atoms: _58  and  _59
REMARK   26  A    between atoms: _61  and  _63
REMARK   27  A    between atoms: _63  and  _64
REMARK   28  A    between atoms: _63  and  _66
REMARK   29  A    between atoms: _66  and  _67
REMARK   30  A    between atoms: _70  and  _72
REMARK   31  A    between atoms: _72  and  _73
REMARK   32  A    between atoms: _72  and  _75
REMARK   33  A    between atoms: _75  and  _76
REMARK   34  A    between atoms: _81  and  _83
REMARK   35  A    between atoms: _83  and  _84
REMARK   36  A    between atoms: _83  and  _86
REMARK   37  A    between atoms: _86  and  _87
REMARK   38  A    between atoms: _87  and  _88
REMARK   39  A    between atoms: _91  and  _93
REMARK   40  A    between atoms: _93  and  _94
REMARK   41  A    between atoms: _93  and  _96
REMARK   42  A    between atoms: _96  and  _97
REMARK   43  A    between atoms: _100  and  _102
REMARK   44  A    between atoms: _102  and  _103
REMARK   45  A    between atoms: _105  and  _107
REMARK   46  A    between atoms: _107  and  _108
REMARK   47  A    between atoms: _107  and  _110
REMARK   48  A    between atoms: _110  and  _111
REMARK   49  A    between atoms: _111  and  _112
REMARK   50  A    between atoms: _115  and  _117
REMARK   51  A    between atoms: _117  and  _118
REMARK   52  A    between atoms: _117  and  _120
REMARK   53  A    between atoms: _120  and  _121
REMARK   54  A    between atoms: _121  and  _122
REMARK   55  A    between atoms: _122  and  _123
REMARK   56  A    between atoms: _132  and  _134
REMARK   57  A    between atoms: _134  and  _135
REMARK   58  A    between atoms: _134  and  _137
REMARK   59  A    between atoms: _137  and  _138
REMARK   60  A    between atoms: _138  and  _139
REMARK   61  A    between atoms: _144  and  _146
REMARK   62  A    between atoms: _146  and  _147
REMARK   63  A    between atoms: _146  and  _149
REMARK   64  A    between atoms: _149  and  _150
REMARK   65  A    between atoms: _153  and  _155
REMARK   66  A    between atoms: _155  and  _156
REMARK   67  A    between atoms: _155  and  _158
REMARK   68  A    between atoms: _158  and  _159
REMARK   69  A    between atoms: _162  and  _164
REMARK   70  A    between atoms: _164  and  _165
REMARK   71  A    between atoms: _164  and  _167
REMARK   72  A    between atoms: _167  and  _168
REMARK   73  A    between atoms: _168  and  _169
REMARK   74  A    between atoms: _174  and  _176
REMARK   75  A    between atoms: _176  and  _177
REMARK   76  A    between atoms: _176  and  _179
REMARK   77  A    between atoms: _179  and  _180
REMARK   78  A    between atoms: _185  and  _186
REMARK   79  A    between atoms: _188  and  _190
REMARK   80  A    between atoms: _190  and  _191
REMARK   81  A    between atoms: _190  and  _193
REMARK   82  A    between atoms: _193  and  _194
REMARK   83  A    between atoms: _196  and  _198
REMARK   84  A    between atoms: _198  and  _199
REMARK   85  A    between atoms: _198  and  _201
REMARK   86  A    between atoms: _201  and  _202
REMARK   87  A    between atoms: _205  and  _207
REMARK   88  A    between atoms: _207  and  _208
REMARK   89  A    between atoms: _207  and  _210
REMARK   90  A    between atoms: _210  and  _211
REMARK   91  A    between atoms: _211  and  _212
REMARK   92  A    between atoms: _214  and  _216
REMARK   93  A    between atoms: _216  and  _217
REMARK   94  A    between atoms: _219  and  _221
REMARK   95  A    between atoms: _221  and  _222
REMARK   96  A    between atoms: _221  and  _224
REMARK   97  A    between atoms: _224  and  _225
REMARK   98  A    between atoms: _228  and  _230
REMARK   99  A    between atoms: _230  and  _231
REMARK  100  A    between atoms: _230  and  _233
REMARK  101  A    between atoms: _233  and  _234
REMARK  102  A    between atoms: _234  and  _235
REMARK  103  A    between atoms: _237  and  _239
REMARK  104  A    between atoms: _239  and  _240
REMARK  105  A    between atoms: _239  and  _242
REMARK  106  A    between atoms: _245  and  _247
REMARK  107  A    between atoms: _247  and  _248
REMARK  108  A    between atoms: _247  and  _250
REMARK  109  A    between atoms: _250  and  _251
REMARK  110  A    between atoms: _257  and  _259
REMARK  111  A    between atoms: _259  and  _260
REMARK  112  A    between atoms: _263  and  _265
REMARK  113  A    between atoms: _265  and  _266
REMARK  114  A    between atoms: _265  and  _268
REMARK  115  A    between atoms: _268  and  _269
REMARK  116  A    between atoms: _269  and  _270
REMARK  117  A    between atoms: _272  and  _274
REMARK  118  A    between atoms: _274  and  _275
REMARK  119  A    between atoms: _277  and  _279
REMARK  120  A    between atoms: _279  and  _280
REMARK  121  A    between atoms: _279  and  _282
REMARK  122  A    between atoms: _282  and  _283
REMARK  123  A    between atoms: _293  and  _295
REMARK  124  A    between atoms: _295  and  _296
REMARK  125  A    between atoms: _295  and  _298
REMARK  126  A    between atoms: _298  and  _299
REMARK  127  A    between atoms: _299  and  _300
REMARK  128  A    between atoms: _300  and  _301
REMARK  129  A    between atoms: _310  and  _312
REMARK  130  A    between atoms: _312  and  _313
REMARK  131  A    between atoms: _312  and  _315
REMARK  132  A    between atoms: _315  and  _316
REMARK  133  A    between atoms: _318  and  _320
REMARK  134  A    between atoms: _320  and  _321
REMARK  135  A    between atoms: _320  and  _323
REMARK  136  A    between atoms: _323  and  _324
REMARK  137  A    between atoms: _327  and  _329
REMARK  138  A    between atoms: _329  and  _330
REMARK  139  A    between atoms: _329  and  _332
REMARK  140  A    between atoms: _332  and  _333
REMARK  141  A    between atoms: _338  and  _339
REMARK  142  A    between atoms: _341  and  _343
REMARK  143  A    between atoms: _343  and  _344
REMARK  144  A    between atoms: _343  and  _346
REMARK  145  A    between atoms: _346  and  _347
REMARK  146  A    between atoms: _353  and  _355
REMARK  147  A    between atoms: _355  and  _356
REMARK  148  A    between atoms: _359  and  _361
REMARK  149  A    between atoms: _361  and  _362
REMARK  150  A    between atoms: _361  and  _364
REMARK  151  A    between atoms: _364  and  _365
REMARK  152  A    between atoms: _368  and  _370
REMARK  153  A    between atoms: _370  and  _371
REMARK  154  A    between atoms: _370  and  _373
REMARK  155  A    between atoms: _373  and  _374
REMARK  156  A    between atoms: _380  and  _382
REMARK  157  A    between atoms: _382  and  _383
REMARK  158  A    between atoms: _382  and  _385
REMARK  159  A    between atoms: _385  and  _386
REMARK  160  A    between atoms: _388  and  _390
REMARK  161  A    between atoms: _390  and  _391
REMARK  162  A    between atoms: _390  and  _393
REMARK  163  A    between atoms: _393  and  _394
REMARK  164  A    between atoms: _394  and  _395
REMARK  165  A    between atoms: _397  and  _399
REMARK  166  A    between atoms: _399  and  _400
REMARK  167  A    between atoms: _399  and  _402
REMARK  168  A    between atoms: _402  and  _403
REMARK  169  A    between atoms: _403  and  _404
REMARK  170  A    between atoms: _409  and  _411
REMARK  171  A    between atoms: _411  and  _412
REMARK  172  A    between atoms: _411  and  _414
REMARK  173  A    between atoms: _416  and  _418
REMARK  174  A    between atoms: _418  and  _419
REMARK  175  A    between atoms: _418  and  _421
REMARK  176  A    between atoms: _421  and  _422
REMARK  177  A    between atoms: _422  and  _423
REMARK  178  A    between atoms: _425  and  _427
REMARK  179  A    between atoms: _427  and  _428
REMARK  180  A    between atoms: _427  and  _430
REMARK  181  A    between atoms: _430  and  _431
REMARK  182  A    between atoms: _434  and  _436
REMARK  183  A    between atoms: _436  and  _437
REMARK  184  A    between atoms: _436  and  _439
REMARK  185  A    between atoms: _439  and  _440
REMARK  186  A    between atoms: _443  and  _445
REMARK  187  A    between atoms: _445  and  _446
REMARK  188  A    between atoms: _445  and  _448
REMARK  189  A    between atoms: _451  and  _453
REMARK  190  A    between atoms: _453  and  _454
REMARK  191  A    between atoms: _453  and  _456
REMARK  192  A    between atoms: _456  and  _457
REMARK  193  A    between atoms: _460  and  _462
REMARK  194  A    between atoms: _462  and  _463
REMARK  195  A    between atoms: _466  and  _468
REMARK  196  A    between atoms: _468  and  _469
REMARK  197  A    between atoms: _468  and  _471
REMARK  198  A    between atoms: _471  and  _472
REMARK  199  A    between atoms: _475  and  _477
REMARK  200  A    between atoms: _477  and  _478
REMARK  201  A    between atoms: _477  and  _480
REMARK  202  A    between atoms: _480  and  _481
REMARK  203  A    between atoms: _486  and  _488
REMARK  204  A    between atoms: _488  and  _489
REMARK  205  A    between atoms: _488  and  _491
REMARK  206  A    between atoms: _491  and  _492
REMARK  207  A    between atoms: _498  and  _500
REMARK  208  A    between atoms: _500  and  _501
REMARK  209  A    between atoms: _500  and  _503
REMARK  210  A    between atoms: _503  and  _504
REMARK  211  A    between atoms: _507  and  _509
REMARK  212  A    between atoms: _509  and  _510
REMARK  213  A    between atoms: _509  and  _512
REMARK  214  A    between atoms: _512  and  _513
REMARK  215  A    between atoms: _519  and  _521
REMARK  216  A    between atoms: _521  and  _522
REMARK  217  A    between atoms: _521  and  _524
REMARK  218  A    between atoms: _524  and  _525
REMARK  219  A    between atoms: _528  and  _530
REMARK  220  A    between atoms: _530  and  _531
REMARK  221  A    between atoms: _530  and  _533
REMARK  222  A    between atoms: _533  and  _534
REMARK  223  A    between atoms: _537  and  _539
REMARK  224  A    between atoms: _539  and  _540
REMARK  225  A    between atoms: _539  and  _542
REMARK  226  A    between atoms: _545  and  _547
REMARK  227  A    between atoms: _547  and  _548
REMARK  228  A    between atoms: _547  and  _550
REMARK  229  A    between atoms: _550  and  _551
REMARK  230  A    between atoms: _554  and  _556
REMARK  231  A    between atoms: _556  and  _557
REMARK  232  A    between atoms: _556  and  _559
REMARK  233  A    between atoms: _559  and  _560
REMARK  234  A    between atoms: _567  and  _568
REMARK  235  A    between atoms: _573  and  _575
REMARK  236  A    between atoms: _575  and  _576
REMARK  237  A    between atoms: _575  and  _578
REMARK  238  A    between atoms: _578  and  _579
REMARK  239  A    between atoms: _579  and  _580
REMARK  240  A    between atoms: _582  and  _584
REMARK  241  A    between atoms: _584  and  _585
REMARK  242  A    between atoms: _584  and  _587
REMARK  243  A    between atoms: _587  and  _588
REMARK  244  A    between atoms: _588  and  _589
REMARK  245  A    between atoms: _591  and  _593
REMARK  246  A    between atoms: _593  and  _594
REMARK  247  A    between atoms: _597  and  _599
REMARK  248  A    between atoms: _599  and  _600
REMARK  249  A    between atoms: _599  and  _602
REMARK  250  A    between atoms: _602  and  _603
REMARK  251  A    between atoms: _603  and  _604
REMARK  252  A    between atoms: _607  and  _609
REMARK  253  A    between atoms: _609  and  _610
REMARK  254  A    between atoms: _609  and  _612
REMARK  255  A    between atoms: _612  and  _613
REMARK  256  A    between atoms: _616  and  _618
REMARK  257  A    between atoms: _618  and  _619
REMARK  258  A    between atoms: _618  and  _621
REMARK  259  A    between atoms: _621  and  _622
REMARK  260  A    between atoms: _625  and  _627
REMARK  261  A    between atoms: _627  and  _628
REMARK  262  A    between atoms: _627  and  _630
REMARK  263  A    between atoms: _630  and  _631
REMARK  264  A    between atoms: _633  and  _635
REMARK  265  A    between atoms: _635  and  _636
REMARK  266  A    between atoms: _635  and  _638
REMARK  267  A    between atoms: _641  and  _643
REMARK  268  A    between atoms: _643  and  _644
REMARK  269  A    between atoms: _643  and  _646
REMARK  270  A    between atoms: _646  and  _647
REMARK  271  A    between atoms: _647  and  _648
REMARK  272  A    between atoms: _653  and  _655
REMARK  273  A    between atoms: _655  and  _656
REMARK  274  A    between atoms: _655  and  _658
REMARK  275  A    between atoms: _662  and  _663
REMARK  276  A    between atoms: _668  and  _670
REMARK  277  A    between atoms: _670  and  _671
REMARK  278  A    between atoms: _670  and  _673
REMARK  279  A    between atoms: _673  and  _674
REMARK                            x       y       z     vdW  Elec       q    Type
REMARK                         _______ _______ _______ _____ _____    ______ ____
ROOT
ATOM      1  CA  ALA A   1      31.943  10.234  -0.537  0.00  0.00    +0.133 C 
ATOM      2  CB  ALA A   1      31.115   9.085  -1.105  0.00  0.00    +0.027 C 
ENDROOT
BRANCH   1   3
ATOM      3  N   ALA A   1      31.204  11.485  -0.651  0.00  0.00    -0.239 NA
ATOM      4  H   ALA A   1      30.533  11.613  -1.435  0.00  0.00    +0.142 HD
ENDBRANCH   1   3
BRANCH   1   5
ATOM      5  C   ALA A   1      33.301  10.292  -1.232  0.00  0.00    +0.224 C 
ATOM      6  O   ALA A   1      34.221   9.562  -0.865  0.00  0.00    -0.287 OA
ENDBRANCH   1   5
TORSDOF 2
REMARK  Name = ../refined-set-2016/1z95/1z95_pocket.pdb
REMARK  279 active torsions:
REMARK  status: ('A' for Active; 'I' for Inactive)
REMARK    1  A    between atoms: _1  and  _3
REMARK    2  A    between atoms: _3  and  _4
REMARK    3  A    between atoms: _3  and  _6
REMARK    4  A    between atoms: _9  and  _11
REMARK    5  A    between atoms: _11  and  _12
REMARK    6  A    between atoms: _15  and  _17
REMARK    7  A    between atoms: _17  and  _18
REMARK    8  A    between atoms: _17  and  _20
REMARK    9  A    between atoms: _20  and  _21
REMARK   10  A    between atoms: _27  and  _29
REMARK   11  A    between atoms: _29  and  _30
REMARK   12  A    between atoms: _29  and  _32
REMARK   13  A    between atoms: _32  and  _33
REMARK   14  A    between atoms: _36  and  _38
REMARK   15  A    between atoms: _38  and  _39
REMARK   16  A    between atoms: _38  and  _41
REMARK   17  A    between atoms: _41  and  _42
REMARK   18  A    between atoms: _45  and  _47
REMARK   19  A    between atoms: _47  and  _48
REMARK   20  A    between atoms: _47  and  _50
REMARK   21  A    between atoms: _50  and  _51
REMARK   22  A    between atoms: _53  and  _55
REMARK   23  A    between atoms: _55  and  _56
REMARK   24  A    between atoms: _55  and  _58
REMARK   25  A    between atoms: _58  and  _59
REMARK   26  A    between atoms: _61  and  _63
REMARK   27  A    between atoms: _63  and  _64
REMARK   28  A    between atoms: _63  and  _66
REMARK   29  A    between atoms: _66  and  _67
REMARK   30  A    between atoms: _70  and  _72
REMARK   31  A    between atoms: _72  and  _73
REMARK   32  A    between atoms: _72  and  _75
REMARK   33  A    between atoms: _75  and  _76
REMARK   34  A    between atoms: _81  and  _83
REMARK   35  A    between atoms: _83  and  _84
REMARK   36  A    between atoms: _83  and  _86
REMARK   37  A    between atoms: _86  and  _87
REMARK   38  A    between atoms: _87  and  _88
REMARK   39  A    between atoms: _91  and  _93
REMARK   40  A    between atoms: _93  and  _94
REMARK   41  A    between atoms: _93  and  _96
REMARK   42  A    between atoms: _96  and  _97
REMARK   43  A    between atoms: _100  and  _102
REMARK   44  A    between atoms: _102  and  _103
REMARK   45  A    between atoms: _105  and  _107
REMARK   46  A    between atoms: _107  and  _108
REMARK   47  A    between atoms: _107  and  _110
REMARK   48  A    between atoms: _110  and  _111
REMARK   49  A    between atoms: _111  and  _112
REMARK   50  A    between atoms: _115  and  _117
REMARK   51  A    between atoms: _117  and  _118
REMARK   52  A    between atoms: _117  and  _120
REMARK   53  A    between atoms: _120  and  _121
REMARK   54  A    between atoms: _121  and  _122
REMARK   55  A    between atoms: _122  and  _123
REMARK   56  A    between atoms: _132  and  _134
REMARK   57  A    between atoms: _134  and  _135
REMARK   58  A    between atoms: _134  and  _137
REMARK   59  A    between atoms: _137  and  _138
REMARK   60  A    between atoms: _138  and  _139
REMARK   61  A    between atoms: _144  and  _146
REMARK   62  A    between atoms: _146  and  _147
REMARK   63  A    between atoms: _146  and  _149
REMARK   64  A    between atoms: _149  and  _150
REMARK   65  A    between atoms: _153  and  _155
REMARK   66  A    between atoms: _155  and  _156
REMARK   67  A    between atoms: _155  and  _158
REMARK   68  A    between atoms: _158  and  _159
REMARK   69  A    between atoms: _162  and  _164
REMARK   70  A    between atoms: _164  and  _165
REMARK   71  A    between atoms: _164  and  _167
REMARK   72  A    between atoms: _167  and  _168
REMARK   73  A    between atoms: _168  and  _169
REMARK   74  A    between atoms: _174  and  _176
REMARK   75  A    between atoms: _176  and  _177
REMARK   76  A    between atoms: _176  and  _179
REMARK   77  A    between atoms: _179  and  _180
REMARK   78  A    between atoms: _185  and  _186
REMARK   79  A    between atoms: _188  and  _190
REMARK   80  A    between atoms: _190  and  _191
REMARK   81  A    between atoms: _190  and  _193
REMARK   82  A    between atoms: _193  and  _194
REMARK   83  A    between atoms: _196  and  _198
REMARK   84  A    between atoms: _198  and  _199
REMARK   85  A    between atoms: _198  and  _201
REMARK   86  A    between atoms: _201  and  _202
REMARK   87  A    between atoms: _205  and  _207
REMARK   88  A    between atoms: _207  and  _208
REMARK   89  A    between atoms: _207  and  _210
REMARK   90  A    between atoms: _210  and  _211
REMARK   91  A    between atoms: _211  and  _212
REMARK   92  A    between atoms: _214  and  _216
REMARK   93  A    between atoms: _216  and  _217
REMARK   94  A    between atoms: _219  and  _221
REMARK   95  A    between atoms: _221  and  _222
REMARK   96  A    between atoms: _221  and  _224
REMARK   97  A    between atoms: _224  and  _225
REMARK   98  A    between atoms: _228  and  _230
REMARK   99  A    between atoms: _230  and  _231
REMARK  100  A    between atoms: _230  and  _233
REMARK  101  A    between atoms: _233  and  _234
REMARK  102  A    between atoms: _234  and  _235
REMARK  103  A    between atoms: _237  and  _239
REMARK  104  A    between atoms: _239  and  _240
REMARK  105  A    between atoms: _239  and  _242
REMARK  106  A    between atoms: _245  and  _247
REMARK  107  A    between atoms: _247  and  _248
REMARK  108  A    between atoms: _247  and  _250
REMARK  109  A    between atoms: _250  and  _251
REMARK  110  A    between atoms: _257  and  _259
REMARK  111  A    between atoms: _259  and  _260
REMARK  112  A    between atoms: _263  and  _265
REMARK  113  A    between atoms: _265  and  _266
REMARK  114  A    between atoms: _265  and  _268
REMARK  115  A    between atoms: _268  and  _269
REMARK  116  A    between atoms: _269  and  _270
REMARK  117  A    between atoms: _272  and  _274
REMARK  118  A    between atoms: _274  and  _275
REMARK  119  A    between atoms: _277  and  _279
REMARK  120  A    between atoms: _279  and  _280
REMARK  121  A    between atoms: _279  and  _282
REMARK  122  A    between atoms: _282  and  _283
REMARK  123  A    between atoms: _293  and  _295
REMARK  124  A    between atoms: _295  and  _296
REMARK  125  A    between atoms: _295  and  _298
REMARK  126  A    between atoms: _298  and  _299
REMARK  127  A    between atoms: _299  and  _300
REMARK  128  A    between atoms: _300  and  _301
REMARK  129  A    between atoms: _310  and  _312
REMARK  130  A    between atoms: _312  and  _313
REMARK  131  A    between atoms: _312  and  _315
REMARK  132  A    between atoms: _315  and  _316
REMARK  133  A    between atoms: _318  and  _320
REMARK  134  A    between atoms: _320  and  _321
REMARK  135  A    between atoms: _320  and  _323
REMARK  136  A    between atoms: _323  and  _324
REMARK  137  A    between atoms: _327  and  _329
REMARK  138  A    between atoms: _329  and  _330
REMARK  139  A    between atoms: _329  and  _332
REMARK  140  A    between atoms: _332  and  _333
REMARK  141  A    between atoms: _338  and  _339
REMARK  142  A    between atoms: _341  and  _343
REMARK  143  A    between atoms: _343  and  _344
REMARK  144  A    between atoms: _343  and  _346
REMARK  145  A    between atoms: _346  and  _347
REMARK  146  A    between atoms: _353  and  _355
REMARK  147  A    between atoms: _355  and  _356
REMARK  148  A    between atoms: _359  and  _361
REMARK  149  A    between atoms: _361  and  _362
REMARK  150  A    between atoms: _361  and  _364
REMARK  151  A    between atoms: _364  and  _365
REMARK  152  A    between atoms: _368  and  _370
REMARK  153  A    between atoms: _370  and  _371
REMARK  154  A    between atoms: _370  and  _373
REMARK  155  A    between atoms: _373  and  _374
REMARK  156  A    between atoms: _380  and  _382
REMARK  157  A    between atoms: _382  and  _383
REMARK  158  A    between atoms: _382  and  _385
REMARK  159  A    between atoms: _385  and  _386
REMARK  160  A    between atoms: _388  and  _390
REMARK  161  A    between atoms: _390  and  _391
REMARK  162  A    between atoms: _390  and  _393
REMARK  163  A    between atoms: _393  and  _394
REMARK  164  A    between atoms: _394  and  _395
REMARK  165  A    between atoms: _397  and  _399
REMARK  166  A    between atoms: _399  and  _400
REMARK  167  A    between atoms: _399  and  _402
REMARK  168  A    between atoms: _402  and  _403
REMARK  169  A    between atoms: _403  and  _404
REMARK  170  A    between atoms: _409  and  _411
REMARK  171  A    between atoms: _411  and  _412
REMARK  172  A    between atoms: _411  and  _414
REMARK  173  A    between atoms: _416  and  _418
REMARK  174  A    between atoms: _418  and  _419
REMARK  175  A    between atoms: _418  and  _421
REMARK  176  A    between atoms: _421  and  _422
REMARK  177  A    between atoms: _422  and  _423
REMARK  178  A    between atoms: _425  and  _427
REMARK  179  A    between atoms: _427  and  _428
REMARK  180  A    between atoms: _427  and  _430
REMARK  181  A    between atoms: _430  and  _431
REMARK  182  A    between atoms: _434  and  _436
REMARK  183  A    between atoms: _436  and  _437
REMARK  184  A    between atoms: _436  and  _439
REMARK  185  A    between atoms: _439  and  _440
REMARK  186  A    between atoms: _443  and  _445
REMARK  187  A    between atoms: _445  and  _446
REMARK  188  A    between atoms: _445  and  _448
REMARK  189  A    between atoms: _451  and  _453
REMARK  190  A    between atoms: _453  and  _454
REMARK  191  A    between atoms: _453  and  _456
REMARK  192  A    between atoms: _456  and  _457
REMARK  193  A    between atoms: _460  and  _462
REMARK  194  A    between atoms: _462  and  _463
REMARK  195  A    between atoms: _466  and  _468
REMARK  196  A    between atoms: _468  and  _469
REMARK  197  A    between atoms: _468  and  _471
REMARK  198  A    between atoms: _471  and  _472
REMARK  199  A    between atoms: _475  and  _477
REMARK  200  A    between atoms: _477  and  _478
REMARK  201  A    between atoms: _477  and  _480
REMARK  202  A    between atoms: _480  and  _481
REMARK  203  A    between atoms: _486  and  _488
REMARK  204  A    between atoms: _488  and  _489
REMARK  205  A    between atoms: _488  and  _491
REMARK  206  A    between atoms: _491  and  _492
REMARK  207  A    between atoms: _498  and  _500
REMARK  208  A    between atoms: _500  and  _501
REMARK  209  A    between atoms: _500  and  _503
REMARK  210  A    between atoms: _503  and  _504
REMARK  211  A    between atoms: _507  and  _509
REMARK  212  A    between atoms: _509  and  _510
REMARK  213  A    between atoms: _509  and  _512
REMARK  214  A    between atoms: _512  and  _513
REMARK  215  A    between atoms: _519  and  _521
REMARK  216  A    between atoms: _521  and  _522
REMARK  217  A    between atoms: _521  and  _524
REMARK  218  A    between atoms: _524  and  _525
REMARK  219  A    between atoms: _528  and  _530
REMARK  220  A    between atoms: _530  and  _531
REMARK  221  A    between atoms: _530  and  _533
REMARK  222  A    between atoms: _533  and  _534
REMARK  223  A    between atoms: _537  and  _539
REMARK  224  A    between atoms: _539  and  _540
REMARK  225  A    between atoms: _539  and  _542
REMARK  226  A    between atoms: _545  and  _547
REMARK  227  A    between atoms: _547  and  _548
REMARK  228  A    between atoms: _547  and  _550
REMARK  229  A    between atoms: _550  and  _551
REMARK  230  A    between atoms: _554  and  _556
REMARK  231  A    between atoms: _556  and  _557
REMARK  232  A    between atoms: _556  and  _559
REMARK  233  A    between atoms: _559  and  _560
REMARK  234  A    between atoms: _567  and  _568
REMARK  235  A    between atoms: _573  and  _575
REMARK  236  A    between atoms: _575  and  _576
REMARK  237  A    between atoms: _575  and  _578
REMARK  238  A    between atoms: _578  and  _579
REMARK  239  A    between atoms: _579  and  _580
REMARK  240  A    between atoms: _582  and  _584
REMARK  241  A    between atoms: _584  and  _585
REMARK  242  A    between atoms: _584  and  _587
REMARK  243  A    between atoms: _587  and  _588
REMARK  244  A    between atoms: _588  and  _589
REMARK  245  A    between atoms: _591  and  _593
REMARK  246  A    between atoms: _593  and  _594
REMARK  247  A    between atoms: _597  and  _599
REMARK  248  A    between atoms: _599  and  _600
REMARK  249  A    between atoms: _599  and  _602
REMARK  250  A    between atoms: _602  and  _603
REMARK  251  A    between atoms: _603  and  _604
REMARK  252  A    between atoms: _607  and  _609
REMARK  253  A    between atoms: _609  and  _610
REMARK  254  A    between atoms: _609  and  _612
REMARK  255  A    between atoms: _612  and  _613
REMARK  256  A    between atoms: _616  and  _618
REMARK  257  A    between atoms: _618  and  _619
REMARK  258  A    between atoms: _618  and  _621
REMARK  259  A    between atoms: _621  and  _622
REMARK  260  A    between atoms: _625  and  _627
REMARK  261  A    between atoms: _627  and  _628
REMARK  262  A    between atoms: _627  and  _630
REMARK  263  A    between atoms: _630  and  _631
REMARK  264  A    between atoms: _633  and  _635
REMARK  265  A    between atoms: _635  and  _636
REMARK  266  A    between atoms: _635  and  _638
REMARK  267  A    between atoms: _641  and  _643
REMARK  268  A    between atoms: _643  and  _644
REMARK  269  A    between atoms: _643  and  _646
REMARK  270  A    between atoms: _646  and  _647
REMARK  271  A    between atoms: _647  and  _648
REMARK  272  A    between atoms: _653  and  _655
REMARK  273  A    between atoms: _655  and  _656
REMARK  274  A    between atoms: _655  and  _658
REMARK  275  A    between atoms: _662  and  _663
REMARK  276  A    between atoms: _668  and  _670
REMARK  277  A    between atoms: _670  and  _671
REMARK  278  A    between atoms: _670  and  _673
REMARK  279  A    between atoms: _673  and  _674
REMARK                            x       y       z     vdW  Elec       q    Type
REMARK                         _______ _______ _______ _____ _____    ______ ____
ROOT
ATOM      1  CB  PHE A   1      31.563  -5.551  -6.161  0.00  0.00    +0.051 C 
ENDROOT
BRANCH   1   2
ATOM      2  CG  PHE A   1      31.402  -5.929  -4.709  0.00  0.00    -0.020 A 
ATOM      3  CD2 PHE A   1      32.443  -6.548  -4.019  0.00  0.00    -0.004 A 
ATOM      4  CE2 PHE A   1      32.301  -6.910  -2.672  0.00  0.00    -0.000 A 
ATOM      5  CZ  PHE A   1      31.104  -6.653  -2.003  0.00  0.00    -0.000 A 
ATOM      6  CE1 PHE A   1      30.053  -6.031  -2.687  0.00  0.00    -0.000 A 
ATOM      7  CD1 PHE A   1      30.213  -5.673  -4.035  0.00  0.00    -0.004 A 
ENDBRANCH   1   2
BRANCH   1   8
ATOM      8  CA  PHE A   1      31.540  -4.036  -6.419  0.00  0.00    +0.137 C 
BRANCH   8   9
ATOM      9  N   PHE A   1      31.735  -3.766  -7.839  0.00  0.00    -0.239 NA
ATOM     10  H   PHE A   1      31.798  -4.566  -8.500  0.00  0.00    +0.142 HD
ENDBRANCH   8   9
BRANCH   8  11
ATOM     11  C   PHE A   1      32.644  -3.369  -5.612  0.00  0.00    +0.224 C 
ATOM     12  O   PHE A   1      32.375  -2.652  -4.649  0.00  0.00    -0.287 OA
ENDBRANCH   8  11
ENDBRANCH   1   8
TORSDOF 4
REMARK  Name = ../refined-set-2016/1z95/1z95_pocket.pdb
REMARK  279 active torsions:
REMARK  status: ('A' for Active; 'I' for Inactive)
REMARK    1  A    between atoms: _1  and  _3
REMARK    2  A    between atoms: _3  and  _4
REMARK    3  A    between atoms: _3  and  _6
REMARK    4  A    between atoms: _9  and  _11
REMARK    5  A    between atoms: _11  and  _12
REMARK    6  A    between atoms: _15  and  _17
REMARK    7  A    between atoms: _17  and  _18
REMARK    8  A    between atoms: _17  and  _20
REMARK    9  A    between atoms: _20  and  _21
REMARK   10  A    between atoms: _27  and  _29
REMARK   11  A    between atoms: _29  and  _30
REMARK   12  A    between atoms: _29  and  _32
REMARK   13  A    between atoms: _32  and  _33
REMARK   14  A    between atoms: _36  and  _38
REMARK   15  A    between atoms: _38  and  _39
REMARK   16  A    between atoms: _38  and  _41
REMARK   17  A    between atoms: _41  and  _42
REMARK   18  A    between atoms: _45  and  _47
REMARK   19  A    between atoms: _47  and  _48
REMARK   20  A    between atoms: _47  and  _50
REMARK   21  A    between atoms: _50  and  _51
REMARK   22  A    between atoms: _53  and  _55
REMARK   23  A    between atoms: _55  and  _56
REMARK   24  A    between atoms: _55  and  _58
REMARK   25  A    between atoms: _58  and  _59
REMARK   26  A    between atoms: _61  and  _63
REMARK   27  A    between atoms: _63  and  _64
REMARK   28  A    between atoms: _63  and  _66
REMARK   29  A    between atoms: _66  and  _67
REMARK   30  A    between atoms: _70  and  _72
REMARK   31  A    between atoms: _72  and  _73
REMARK   32  A    between atoms: _72  and  _75
REMARK   33  A    between atoms: _75  and  _76
REMARK   34  A    between atoms: _81  and  _83
REMARK   35  A    between atoms: _83  and  _84
REMARK   36  A    between atoms: _83  and  _86
REMARK   37  A    between atoms: _86  and  _87
REMARK   38  A    between atoms: _87  and  _88
REMARK   39  A    between atoms: _91  and  _93
REMARK   40  A    between atoms: _93  and  _94
REMARK   41  A    between atoms: _93  and  _96
REMARK   42  A    between atoms: _96  and  _97
REMARK   43  A    between atoms: _100  and  _102
REMARK   44  A    between atoms: _102  and  _103
REMARK   45  A    between atoms: _105  and  _107
REMARK   46  A    between atoms: _107  and  _108
REMARK   47  A    between atoms: _107  and  _110
REMARK   48  A    between atoms: _110  and  _111
REMARK   49  A    between atoms: _111  and  _112
REMARK   50  A    between atoms: _115  and  _117
REMARK   51  A    between atoms: _117  and  _118
REMARK   52  A    between atoms: _117  and  _120
REMARK   53  A    between atoms: _120  and  _121
REMARK   54  A    between atoms: _121  and  _122
REMARK   55  A    between atoms: _122  and  _123
REMARK   56  A    between atoms: _132  and  _134
REMARK   57  A    between atoms: _134  and  _135
REMARK   58  A    between atoms: _134  and  _137
REMARK   59  A    between atoms: _137  and  _138
REMARK   60  A    between atoms: _138  and  _139
REMARK   61  A    between atoms: _144  and  _146
REMARK   62  A    between atoms: _146  and  _147
REMARK   63  A    between atoms: _146  and  _149
REMARK   64  A    between atoms: _149  and  _150
REMARK   65  A    between atoms: _153  and  _155
REMARK   66  A    between atoms: _155  and  _156
REMARK   67  A    between atoms: _155  and  _158
REMARK   68  A    between atoms: _158  and  _159
REMARK   69  A    between atoms: _162  and  _164
REMARK   70  A    between atoms: _164  and  _165
REMARK   71  A    between atoms: _164  and  _167
REMARK   72  A    between atoms: _167  and  _168
REMARK   73  A    between atoms: _168  and  _169
REMARK   74  A    between atoms: _174  and  _176
REMARK   75  A    between atoms: _176  and  _177
REMARK   76  A    between atoms: _176  and  _179
REMARK   77  A    between atoms: _179  and  _180
REMARK   78  A    between atoms: _185  and  _186
REMARK   79  A    between atoms: _188  and  _190
REMARK   80  A    between atoms: _190  and  _191
REMARK   81  A    between atoms: _190  and  _193
REMARK   82  A    between atoms: _193  and  _194
REMARK   83  A    between atoms: _196  and  _198
REMARK   84  A    between atoms: _198  and  _199
REMARK   85  A    between atoms: _198  and  _201
REMARK   86  A    between atoms: _201  and  _202
REMARK   87  A    between atoms: _205  and  _207
REMARK   88  A    between atoms: _207  and  _208
REMARK   89  A    between atoms: _207  and  _210
REMARK   90  A    between atoms: _210  and  _211
REMARK   91  A    between atoms: _211  and  _212
REMARK   92  A    between atoms: _214  and  _216
REMARK   93  A    between atoms: _216  and  _217
REMARK   94  A    between atoms: _219  and  _221
REMARK   95  A    between atoms: _221  and  _222
REMARK   96  A    between atoms: _221  and  _224
REMARK   97  A    between atoms: _224  and  _225
REMARK   98  A    between atoms: _228  and  _230
REMARK   99  A    between atoms: _230  and  _231
REMARK  100  A    between atoms: _230  and  _233
REMARK  101  A    between atoms: _233  and  _234
REMARK  102  A    between atoms: _234  and  _235
REMARK  103  A    between atoms: _237  and  _239
REMARK  104  A    between atoms: _239  and  _240
REMARK  105  A    between atoms: _239  and  _242
REMARK  106  A    between atoms: _245  and  _247
REMARK  107  A    between atoms: _247  and  _248
REMARK  108  A    between atoms: _247  and  _250
REMARK  109  A    between atoms: _250  and  _251
REMARK  110  A    between atoms: _257  and  _259
REMARK  111  A    between atoms: _259  and  _260
REMARK  112  A    between atoms: _263  and  _265
REMARK  113  A    between atoms: _265  and  _266
REMARK  114  A    between atoms: _265  and  _268
REMARK  115  A    between atoms: _268  and  _269
REMARK  116  A    between atoms: _269  and  _270
REMARK  117  A    between atoms: _272  and  _274
REMARK  118  A    between atoms: _274  and  _275
REMARK  119  A    between atoms: _277  and  _279
REMARK  120  A    between atoms: _279  and  _280
REMARK  121  A    between atoms: _279  and  _282
REMARK  122  A    between atoms: _282  and  _283
REMARK  123  A    between atoms: _293  and  _295
REMARK  124  A    between atoms: _295  and  _296
REMARK  125  A    between atoms: _295  and  _298
REMARK  126  A    between atoms: _298  and  _299
REMARK  127  A    between atoms: _299  and  _300
REMARK  128  A    between atoms: _300  and  _301
REMARK  129  A    between atoms: _310  and  _312
REMARK  130  A    between atoms: _312  and  _313
REMARK  131  A    between atoms: _312  and  _315
REMARK  132  A    between atoms: _315  and  _316
REMARK  133  A    between atoms: _318  and  _320
REMARK  134  A    between atoms: _320  and  _321
REMARK  135  A    between atoms: _320  and  _323
REMARK  136  A    between atoms: _323  and  _324
REMARK  137  A    between atoms: _327  and  _329
REMARK  138  A    between atoms: _329  and  _330
REMARK  139  A    between atoms: _329  and  _332
REMARK  140  A    between atoms: _332  and  _333
REMARK  141  A    between atoms: _338  and  _339
REMARK  142  A    between atoms: _341  and  _343
REMARK  143  A    between atoms: _343  and  _344
REMARK  144  A    between atoms: _343  and  _346
REMARK  145  A    between atoms: _346  and  _347
REMARK  146  A    between atoms: _353  and  _355
REMARK  147  A    between atoms: _355  and  _356
REMARK  148  A    between atoms: _359  and  _361
REMARK  149  A    between atoms: _361  and  _362
REMARK  150  A    between atoms: _361  and  _364
REMARK  151  A    between atoms: _364  and  _365
REMARK  152  A    between atoms: _368  and  _370
REMARK  153  A    between atoms: _370  and  _371
REMARK  154  A    between atoms: _370  and  _373
REMARK  155  A    between atoms: _373  and  _374
REMARK  156  A    between atoms: _380  and  _382
REMARK  157  A    between atoms: _382  and  _383
REMARK  158  A    between atoms: _382  and  _385
REMARK  159  A    between atoms: _385  and  _386
REMARK  160  A    between atoms: _388  and  _390
REMARK  161  A    between atoms: _390  and  _391
REMARK  162  A    between atoms: _390  and  _393
REMARK  163  A    between atoms: _393  and  _394
REMARK  164  A    between atoms: _394  and  _395
REMARK  165  A    between atoms: _397  and  _399
REMARK  166  A    between atoms: _399  and  _400
REMARK  167  A    between atoms: _399  and  _402
REMARK  168  A    between atoms: _402  and  _403
REMARK  169  A    between atoms: _403  and  _404
REMARK  170  A    between atoms: _409  and  _411
REMARK  171  A    between atoms: _411  and  _412
REMARK  172  A    between atoms: _411  and  _414
REMARK  173  A    between atoms: _416  and  _418
REMARK  174  A    between atoms: _418  and  _419
REMARK  175  A    between atoms: _418  and  _421
REMARK  176  A    between atoms: _421  and  _422
REMARK  177  A    between atoms: _422  and  _423
REMARK  178  A    between atoms: _425  and  _427
REMARK  179  A    between atoms: _427  and  _428
REMARK  180  A    between atoms: _427  and  _430
REMARK  181  A    between atoms: _430  and  _431
REMARK  182  A    between atoms: _434  and  _436
REMARK  183  A    between atoms: _436  and  _437
REMARK  184  A    between atoms: _436  and  _439
REMARK  185  A    between atoms: _439  and  _440
REMARK  186  A    between atoms: _443  and  _445
REMARK  187  A    between atoms: _445  and  _446
REMARK  188  A    between atoms: _445  and  _448
REMARK  189  A    between atoms: _451  and  _453
REMARK  190  A    between atoms: _453  and  _454
REMARK  191  A    between atoms: _453  and  _456
REMARK  192  A    between atoms: _456  and  _457
REMARK  193  A    between atoms: _460  and  _462
REMARK  194  A    between atoms: _462  and  _463
REMARK  195  A    between atoms: _466  and  _468
REMARK  196  A    between atoms: _468  and  _469
REMARK  197  A    between atoms: _468  and  _471
REMARK  198  A    between atoms: _471  and  _472
REMARK  199  A    between atoms: _475  and  _477
REMARK  200  A    between atoms: _477  and  _478
REMARK  201  A    between atoms: _477  and  _480
REMARK  202  A    between atoms: _480  and  _481
REMARK  203  A    between atoms: _486  and  _488
REMARK  204  A    between atoms: _488  and  _489
REMARK  205  A    between atoms: _488  and  _491
REMARK  206  A    between atoms: _491  and  _492
REMARK  207  A    between atoms: _498  and  _500
REMARK  208  A    between atoms: _500  and  _501
REMARK  209  A    between atoms: _500  and  _503
REMARK  210  A    between atoms: _503  and  _504
REMARK  211  A    between atoms: _507  and  _509
REMARK  212  A    between atoms: _509  and  _510
REMARK  213  A    between atoms: _509  and  _512
REMARK  214  A    between atoms: _512  and  _513
REMARK  215  A    between atoms: _519  and  _521
REMARK  216  A    between atoms: _521  and  _522
REMARK  217  A    between atoms: _521  and  _524
REMARK  218  A    between atoms: _524  and  _525
REMARK  219  A    between atoms: _528  and  _530
REMARK  220  A    between atoms: _530  and  _531
REMARK  221  A    between atoms: _530  and  _533
REMARK  222  A    between atoms: _533  and  _534
REMARK  223  A    between atoms: _537  and  _539
REMARK  224  A    between atoms: _539  and  _540
REMARK  225  A    between atoms: _539  and  _542
REMARK  226  A    between atoms: _545  and  _547
REMARK  227  A    between atoms: _547  and  _548
REMARK  228  A    between atoms: _547  and  _550
REMARK  229  A    between atoms: _550  and  _551
REMARK  230  A    between atoms: _554  and  _556
REMARK  231  A    between atoms: _556  and  _557
REMARK  232  A    between atoms: _556  and  _559
REMARK  233  A    between atoms: _559  and  _560
REMARK  234  A    between atoms: _567  and  _568
REMARK  235  A    between atoms: _573  and  _575
REMARK  236  A    between atoms: _575  and  _576
REMARK  237  A    between atoms: _575  and  _578
REMARK  238  A    between atoms: _578  and  _579
REMARK  239  A    between atoms: _579  and  _580
REMARK  240  A    between atoms: _582  and  _584
REMARK  241  A    between atoms: _584  and  _585
REMARK  242  A    between atoms: _584  and  _587
REMARK  243  A    between atoms: _587  and  _588
REMARK  244  A    between atoms: _588  and  _589
REMARK  245  A    between atoms: _591  and  _593
REMARK  246  A    between atoms: _593  and  _594
REMARK  247  A    between atoms: _597  and  _599
REMARK  248  A    between atoms: _599  and  _600
REMARK  249  A    between atoms: _599  and  _602
REMARK  250  A    between atoms: _602  and  _603
REMARK  251  A    between atoms: _603  and  _604
REMARK  252  A    between atoms: _607  and  _609
REMARK  253  A    between atoms: _609  and  _610
REMARK  254  A    between atoms: _609  and  _612
REMARK  255  A    between atoms: _612  and  _613
REMARK  256  A    between atoms: _616  and  _618
REMARK  257  A    between atoms: _618  and  _619
REMARK  258  A    between atoms: _618  and  _621
REMARK  259  A    between atoms: _621  and  _622
REMARK  260  A    between atoms: _625  and  _627
REMARK  261  A    between atoms: _627  and  _628
REMARK  262  A    between atoms: _627  and  _630
REMARK  263  A    between atoms: _630  and  _631
REMARK  264  A    between atoms: _633  and  _635
REMARK  265  A    between atoms: _635  and  _636
REMARK  266  A    between atoms: _635  and  _638
REMARK  267  A    between atoms: _641  and  _643
REMARK  268  A    between atoms: _643  and  _644
REMARK  269  A    between atoms: _643  and  _646
REMARK  270  A    between atoms: _646  and  _647
REMARK  271  A    between atoms: _647  and  _648
REMARK  272  A    between atoms: _653  and  _655
REMARK  273  A    between atoms: _655  and  _656
REMARK  274  A    between atoms: _655  and  _658
REMARK  275  A    between atoms: _662  and  _663
REMARK  276  A    between atoms: _668  and  _670
REMARK  277  A    between atoms: _670  and  _671
REMARK  278  A    between atoms: _670  and  _673
REMARK  279  A    between atoms: _673  and  _674
REMARK                            x       y       z     vdW  Elec       q    Type
REMARK                         _______ _______ _______ _____ _____    ______ ____
ROOT
ATOM      1  C   GLU A   7      34.067   6.909   3.390  0.00  0.00    +0.241 C 
ATOM      2  O   GLU A   7      34.322   7.700   4.294  0.00  0.00    -0.273 OA
ATOM      3  N   LEU A   8      32.871   6.841   2.809  0.00  0.00    -0.297 N 
ATOM      4  H   LEU A   8      32.717   6.157   2.041  0.00  0.00    +0.150 HD
ENDROOT
BRANCH   1   5
ATOM      5  CA  GLU A   7      35.131   5.942   2.882  0.00  0.00    +0.149 C 
BRANCH   5   8
ATOM      6  C   ASN A   6      34.022   3.927   3.689  0.00  0.00    +0.241 C 
ATOM      7  O   ASN A   6      34.011   4.350   4.850  0.00  0.00    -0.273 OA
ATOM      8  N   GLU A   7      34.541   4.613   2.676  0.00  0.00    -0.297 N 
ATOM      9  H   GLU A   7      34.529   4.202   1.721  0.00  0.00    +0.150 HD
BRANCH   6  10
ATOM     10  CA  ASN A   6      33.423   2.564   3.349  0.00  0.00    +0.158 C 
BRANCH  10  13
ATOM     11  C   LEU A   5      31.480   3.407   2.134  0.00  0.00    +0.241 C 
ATOM     12  O   LEU A   5      31.062   4.013   3.117  0.00  0.00    -0.273 OA
ATOM     13  N   ASN A   6      32.596   2.683   2.151  0.00  0.00    -0.297 N 
ATOM     14  H   ASN A   6      32.888   2.187   1.285  0.00  0.00    +0.150 HD
BRANCH  11  15
ATOM     15  CA  LEU A   5      30.726   3.456   0.806  0.00  0.00    +0.149 C 
BRANCH  15  18
ATOM     16  C   SER A   4      32.507   4.525  -0.462  0.00  0.00    +0.243 C 
ATOM     17  O   SER A   4      32.461   5.512   0.263  0.00  0.00    -0.273 OA
ATOM     18  N   LEU A   5      31.693   3.478  -0.297  0.00  0.00    -0.297 N 
ATOM     19  H   LEU A   5      31.745   2.674  -0.955  0.00  0.00    +0.150 HD
BRANCH  16  20
ATOM     20  CA  SER A   4      33.507   4.469  -1.621  0.00  0.00    +0.178 C 
BRANCH  20  23
ATOM     21  C   SER A   3      34.923   2.621  -0.889  0.00  0.00    +0.243 C 
ATOM     22  O   SER A   3      35.345   3.253   0.080  0.00  0.00    -0.273 OA
ATOM     23  N   SER A   4      34.056   3.124  -1.764  0.00  0.00    -0.295 N 
ATOM     24  H   SER A   4      33.761   2.542  -2.574  0.00  0.00    +0.150 HD
BRANCH  21  25
ATOM     25  CA  SER A   3      35.378   1.187  -1.152  0.00  0.00    +0.178 C 
BRANCH  25  28
ATOM     26  C   LEU A   2      33.172   0.236  -0.887  0.00  0.00    +0.241 C 
ATOM     27  O   LEU A   2      33.157   0.542   0.301  0.00  0.00    -0.273 OA
ATOM     28  N   SER A   3      34.212   0.483  -1.677  0.00  0.00    -0.295 N 
ATOM     29  H   SER A   3      34.195   0.174  -2.670  0.00  0.00    +0.150 HD
BRANCH  26  30
ATOM     30  CA  LEU A   2      31.960  -0.437  -1.511  0.00  0.00    +0.149 C 
BRANCH  30  33
ATOM     31  C   LEU A   1      31.403   0.909  -3.396  0.00  0.00    +0.238 C 
ATOM     32  O   LEU A   1      31.111   1.833  -2.635  0.00  0.00    -0.274 OA
ATOM     33  N   LEU A   2      31.846  -0.256  -2.943  0.00  0.00    -0.297 N 
ATOM     34  H   LEU A   2      32.105  -1.020  -3.599  0.00  0.00    +0.150 HD
BRANCH  31  35
ATOM     35  CA  LEU A   1      31.269   1.066  -4.907  0.00  0.00    +0.145 C 
BRANCH  35  36
ATOM     36  N   LEU A   1      32.418   0.562  -5.650  0.00  0.00    -0.238 NA
ATOM     37  H   LEU A   1      32.312  -0.269  -6.266  0.00  0.00    +0.142 HD
ENDBRANCH  35  36
BRANCH  35  38
ATOM     38  CB  LEU A   1      29.988   0.382  -5.387  0.00  0.00    +0.026 C 
BRANCH  38  39
ATOM     39  CG  LEU A   1      29.550   0.740  -6.812  0.00  0.00    +0.002 C 
ATOM     40  CD2 LEU A   1      29.161   2.225  -6.876  0.00  0.00    +0.000 C 
ATOM     41  CD1 LEU A   1      28.388  -0.140  -7.236  0.00  0.00    +0.000 C 
ENDBRANCH  38  39
ENDBRANCH  35  38
ENDBRANCH  31  35
ENDBRANCH  30  33
BRANCH  30  42
ATOM     42  CB  LEU A   2      31.871  -1.917  -1.153  0.00  0.00    +0.029 C 
BRANCH  42  43
ATOM     43  CG  LEU A   2      30.365  -2.126  -0.952  0.00  0.00    +0.002 C 
ATOM     44  CD2 LEU A   2      30.115  -2.901   0.307  0.00  0.00    +0.000 C 
ATOM     45  CD1 LEU A   2      29.762  -2.796  -2.168  0.00  0.00    +0.000 C 
ENDBRANCH  42  43
ENDBRANCH  30  42
ENDBRANCH  26  30
ENDBRANCH  25  28
BRANCH  25  46
ATOM     46  CB  SER A   3      36.526   1.182  -2.162  0.00  0.00    +0.166 C 
BRANCH  46  47
ATOM     47  OG  SER A   3      37.107  -0.107  -2.253  0.00  0.00    -0.380 OA
ATOM     48  H   SER A   3      36.420  -0.757  -2.545  0.00  0.00    +0.211 HD
ENDBRANCH  46  47
ENDBRANCH  25  46
ENDBRANCH  21  25
ENDBRANCH  20  23
BRANCH  20  49
ATOM     49  CB  SER A   4      32.813   4.908  -2.918  0.00  0.00    +0.166 C 
BRANCH  49  50
ATOM     50  OG  SER A   4      33.760   5.225  -3.923  0.00  0.00    -0.380 OA
ATOM     51  H   SER A   4      33.285   5.504  -4.746  0.00  0.00    +0.211 HD
ENDBRANCH  49  50
ENDBRANCH  20  49
ENDBRANCH  16  20
ENDBRANCH  15  18
BRANCH  15  52
ATOM     52  CB  LEU A   5      29.781   2.248   0.700  0.00  0.00    +0.029 C 
BRANCH  52  53
ATOM     53  CG  LEU A   5      28.545   2.414  -0.194  0.00  0.00    +0.002 C 
ATOM     54  CD2 LEU A   5      27.675   3.554   0.344  0.00  0.00    +0.000 C 
ATOM     55  CD1 LEU A   5      27.739   1.114  -0.229  0.00  0.00    +0.000 C 
ENDBRANCH  52  53
ENDBRANCH  15  52
ENDBRANCH  11  15
ENDBRANCH  10  13
BRANCH  10  56
ATOM     56  CB  ASN A   6      34.547   1.541   3.125  0.00  0.00    +0.114 C 
BRANCH  56  57
ATOM     57  CG  ASN A   6      34.028   0.118   2.994  0.00  0.00    +0.222 C 
ATOM     58  OD1 ASN A   6      32.859  -0.158   3.277  0.00  0.00    -0.275 OA
ATOM     59  ND2 ASN A   6      34.900  -0.798   2.576  0.00  0.00    -0.329 N 
ATOM     60 HD21 ASN A   6      34.605  -1.790   2.477  0.00  0.00    +0.145 HD
ATOM     61 HD22 ASN A   6      35.876  -0.521   2.348  0.00  0.00    +0.145 HD
ENDBRANCH  56  57
ENDBRANCH  10  56
ENDBRANCH   6  10
ENDBRANCH   5   8
BRANCH   5  62
ATOM     62  CB  GLU A   7      35.733   6.476   1.581  0.00  0.00    +0.041 C 
BRANCH  62  63
ATOM     63  CG  GLU A   7      36.249   7.919   1.668  0.00  0.00    +0.116 C 
BRANCH  63  64
ATOM     64  CD  GLU A   7      37.371   8.090   2.685  0.00  0.00    +0.365 C 
ATOM     65  OE2 GLU A   7      37.597   9.235   3.130  0.00  0.00    -0.246 OA
ATOM     66  OE1 GLU A   7      38.030   7.086   3.033  0.00  0.00    -0.246 OA
ENDBRANCH  63  64
ENDBRANCH  62  63
ENDBRANCH   5  62
ENDBRANCH   1   5
BRANCH   3  67
ATOM     67  CA  LEU A   8      31.770   7.707   3.228  0.00  0.00    +0.149 C 
BRANCH  67  68
ATOM     68  C   LEU A   8      31.419   7.448   4.691  0.00  0.00    +0.241 C 
ATOM     69  O   LEU A   8      31.108   8.377   5.441  0.00  0.00    -0.273 OA
ATOM     70  N   GLY A   9      31.456   6.181   5.093  0.00  0.00    -0.295 N 
ATOM     71  H   GLY A   9      31.702   5.428   4.419  0.00  0.00    +0.150 HD
BRANCH  70  72
ATOM     72  CA  GLY A   9      31.153   5.849   6.473  0.00  0.00    +0.176 C 
BRANCH  72  73
ATOM     73  C   GLY A   9      32.178   6.531   7.355  0.00  0.00    +0.243 C 
ATOM     74  O   GLY A   9      31.845   7.124   8.381  0.00  0.00    -0.273 OA
ATOM     75  N   GLU A  10      33.436   6.469   6.936  0.00  0.00    -0.297 N 
ATOM     76  H   GLU A  10      33.653   5.966   6.052  0.00  0.00    +0.150 HD
BRANCH  75  77
ATOM     77  CA  GLU A  10      34.524   7.092   7.689  0.00  0.00    +0.149 C 
BRANCH  77  78
ATOM     78  C   GLU A  10      34.265   8.598   7.814  0.00  0.00    +0.241 C 
ATOM     79  O   GLU A  10      34.445   9.190   8.878  0.00  0.00    -0.273 OA
ATOM     80  N   ARG A  11      33.826   9.211   6.719  0.00  0.00    -0.297 N 
ATOM     81  H   ARG A  11      33.682   8.660   5.849  0.00  0.00    +0.150 HD
BRANCH  80  82
ATOM     82  CA  ARG A  11      33.543  10.640   6.714  0.00  0.00    +0.149 C 
BRANCH  82  83
ATOM     83  C   ARG A  11      32.300  11.028   7.528  0.00  0.00    +0.241 C 
ATOM     84  O   ARG A  11      32.306  12.044   8.216  0.00  0.00    -0.273 OA
ATOM     85  N   GLN A  12      31.240  10.228   7.458  0.00  0.00    -0.297 N 
ATOM     86  H   GLN A  12      31.268   9.378   6.859  0.00  0.00    +0.150 HD
BRANCH  85  87
ATOM     87  CA  GLN A  12      30.042  10.543   8.220  0.00  0.00    +0.149 C 
BRANCH  87  88
ATOM     88  C   GLN A  12      30.267  10.328   9.712  0.00  0.00    +0.241 C 
ATOM     89  O   GLN A  12      29.689  11.037  10.532  0.00  0.00    -0.273 OA
ATOM     90  N   LEU A  13      31.109   9.361  10.070  0.00  0.00    -0.298 N 
ATOM     91  H   LEU A  13      31.570   8.779   9.342  0.00  0.00    +0.150 HD
BRANCH  90  92
ATOM     92  CA  LEU A  13      31.387   9.115  11.480  0.00  0.00    +0.137 C 
BRANCH  92  93
ATOM     93  C   LEU A  13      31.952  10.371  12.121  0.00  0.00    +0.227 C 
ATOM     94  O   LEU A  13      31.576  10.729  13.228  0.00  0.00    -0.286 OA
ENDBRANCH  92  93
BRANCH  92  95
ATOM     95  CB  LEU A  13      32.387   7.967  11.657  0.00  0.00    +0.028 C 
BRANCH  95  96
ATOM     96  CG  LEU A  13      32.892   7.791  13.098  0.00  0.00    +0.002 C 
ATOM     97  CD2 LEU A  13      31.709   7.557  14.028  0.00  0.00    +0.000 C 
ATOM     98  CD1 LEU A  13      33.876   6.636  13.171  0.00  0.00    +0.000 C 
ENDBRANCH  95  96
ENDBRANCH  92  95
ENDBRANCH  90  92
ENDBRANCH  87  88
BRANCH  87  99
ATOM     99  CB  GLN A  12      28.840   9.717   7.728  0.00  0.00    +0.039 C 
BRANCH  99 100
ATOM    100  CG  GLN A  12      28.464  10.038   6.279  0.00  0.00    +0.087 C 
BRANCH 100 101
ATOM    101  CD  GLN A  12      27.078   9.578   5.877  0.00  0.00    +0.219 C 
ATOM    102  NE2 GLN A  12      26.345   8.993   6.814  0.00  0.00    -0.329 N 
ATOM    103 HE21 GLN A  12      26.731   8.864   7.771  0.00  0.00    +0.145 HD
ATOM    104 HE22 GLN A  12      25.384   8.663   6.592  0.00  0.00    +0.145 HD
ATOM    105  OE1 GLN A  12      26.669   9.755   4.728  0.00  0.00    -0.275 OA
ENDBRANCH 100 101
ENDBRANCH  99 100
ENDBRANCH  87  99
ENDBRANCH  85  87
ENDBRANCH  82  83
BRANCH  82 106
ATOM    106  CB  ARG A  11      33.410  11.127   5.272  0.00  0.00    +0.033 C 
BRANCH 106 107
ATOM    107  CG  ARG A  11      34.701  10.954   4.471  0.00  0.00    +0.045 C 
BRANCH 107 108
ATOM    108  CD  ARG A  11      34.543  11.519   3.082  0.00  0.00    +0.174 C 
BRANCH 108 109
ATOM    109  NE  ARG A  11      35.750  11.380   2.283  0.00  0.00    -0.265 N 
ATOM    110  HE  ARG A  11      36.530  10.804   2.660  0.00  0.00    +0.259 HD
ATOM    111  CZ  ARG A  11      35.904  11.953   1.095  0.00  0.00    +0.342 C 
ATOM    112  NH2 ARG A  11      34.922  12.692   0.595  0.00  0.00    -0.292 N 
ATOM    113 HH21 ARG A  11      34.041  12.819   1.133  0.00  0.00    +0.255 HD
ATOM    114 HH22 ARG A  11      35.033  13.145  -0.335  0.00  0.00    +0.255 HD
ATOM    115  NH1 ARG A  11      37.030  11.795   0.411  0.00  0.00    -0.292 N 
ATOM    116 HH11 ARG A  11      37.801  11.219   0.805  0.00  0.00    +0.255 HD
ATOM    117 HH12 ARG A  11      37.142  12.248  -0.519  0.00  0.00    +0.255 HD
ENDBRANCH 108 109
ENDBRANCH 107 108
ENDBRANCH 106 107
ENDBRANCH  82 106
ENDBRANCH  80  82
ENDBRANCH  77  78
BRANCH  77 118
ATOM    118  CB  GLU A  10      35.857   6.853   6.970  0.00  0.00    +0.041 C 
BRANCH 118 119
ATOM    119  CG  GLU A  10      37.088   7.315   7.748  0.00  0.00    +0.116 C 
BRANCH 119 120
ATOM    120  CD  GLU A  10      37.571   6.280   8.749  0.00  0.00    +0.365 C 
ATOM    121  OE2 GLU A  10      38.714   6.406   9.242  0.00  0.00    -0.246 OA
ATOM    122  OE1 GLU A  10      36.803   5.339   9.048  0.00  0.00    -0.246 OA
ENDBRANCH 119 120
ENDBRANCH 118 119
ENDBRANCH  77 118
ENDBRANCH  75  77
ENDBRANCH  72  73
ENDBRANCH  70  72
ENDBRANCH  67  68
BRANCH  67 123
ATOM    123  CB  LEU A   8      30.528   7.468   2.360  0.00  0.00    +0.029 C 
BRANCH 123 124
ATOM    124  CG  LEU A   8      29.353   8.406   2.660  0.00  0.00    +0.002 C 
ATOM    125  CD2 LEU A   8      29.813   9.851   2.503  0.00  0.00    +0.000 C 
ATOM    126  CD1 LEU A   8      28.188   8.114   1.722  0.00  0.00    +0.000 C 
ENDBRANCH 123 124
ENDBRANCH  67 123
ENDBRANCH   3  67
TORSDOF 55
REMARK  Name = ../refined-set-2016/1z95/1z95_pocket.pdb
REMARK  279 active torsions:
REMARK  status: ('A' for Active; 'I' for Inactive)
REMARK    1  A    between atoms: _1  and  _3
REMARK    2  A    between atoms: _3  and  _4
REMARK    3  A    between atoms: _3  and  _6
REMARK    4  A    between atoms: _9  and  _11
REMARK    5  A    between atoms: _11  and  _12
REMARK    6  A    between atoms: _15  and  _17
REMARK    7  A    between atoms: _17  and  _18
REMARK    8  A    between atoms: _17  and  _20
REMARK    9  A    between atoms: _20  and  _21
REMARK   10  A    between atoms: _27  and  _29
REMARK   11  A    between atoms: _29  and  _30
REMARK   12  A    between atoms: _29  and  _32
REMARK   13  A    between atoms: _32  and  _33
REMARK   14  A    between atoms: _36  and  _38
REMARK   15  A    between atoms: _38  and  _39
REMARK   16  A    between atoms: _38  and  _41
REMARK   17  A    between atoms: _41  and  _42
REMARK   18  A    between atoms: _45  and  _47
REMARK   19  A    between atoms: _47  and  _48
REMARK   20  A    between atoms: _47  and  _50
REMARK   21  A    between atoms: _50  and  _51
REMARK   22  A    between atoms: _53  and  _55
REMARK   23  A    between atoms: _55  and  _56
REMARK   24  A    between atoms: _55  and  _58
REMARK   25  A    between atoms: _58  and  _59
REMARK   26  A    between atoms: _61  and  _63
REMARK   27  A    between atoms: _63  and  _64
REMARK   28  A    between atoms: _63  and  _66
REMARK   29  A    between atoms: _66  and  _67
REMARK   30  A    between atoms: _70  and  _72
REMARK   31  A    between atoms: _72  and  _73
REMARK   32  A    between atoms: _72  and  _75
REMARK   33  A    between atoms: _75  and  _76
REMARK   34  A    between atoms: _81  and  _83
REMARK   35  A    between atoms: _83  and  _84
REMARK   36  A    between atoms: _83  and  _86
REMARK   37  A    between atoms: _86  and  _87
REMARK   38  A    between atoms: _87  and  _88
REMARK   39  A    between atoms: _91  and  _93
REMARK   40  A    between atoms: _93  and  _94
REMARK   41  A    between atoms: _93  and  _96
REMARK   42  A    between atoms: _96  and  _97
REMARK   43  A    between atoms: _100  and  _102
REMARK   44  A    between atoms: _102  and  _103
REMARK   45  A    between atoms: _105  and  _107
REMARK   46  A    between atoms: _107  and  _108
REMARK   47  A    between atoms: _107  and  _110
REMARK   48  A    between atoms: _110  and  _111
REMARK   49  A    between atoms: _111  and  _112
REMARK   50  A    between atoms: _115  and  _117
REMARK   51  A    between atoms: _117  and  _118
REMARK   52  A    between atoms: _117  and  _120
REMARK   53  A    between atoms: _120  and  _121
REMARK   54  A    between atoms: _121  and  _122
REMARK   55  A    between atoms: _122  and  _123
REMARK   56  A    between atoms: _132  and  _134
REMARK   57  A    between atoms: _134  and  _135
REMARK   58  A    between atoms: _134  and  _137
REMARK   59  A    between atoms: _137  and  _138
REMARK   60  A    between atoms: _138  and  _139
REMARK   61  A    between atoms: _144  and  _146
REMARK   62  A    between atoms: _146  and  _147
REMARK   63  A    between atoms: _146  and  _149
REMARK   64  A    between atoms: _149  and  _150
REMARK   65  A    between atoms: _153  and  _155
REMARK   66  A    between atoms: _155  and  _156
REMARK   67  A    between atoms: _155  and  _158
REMARK   68  A    between atoms: _158  and  _159
REMARK   69  A    between atoms: _162  and  _164
REMARK   70  A    between atoms: _164  and  _165
REMARK   71  A    between atoms: _164  and  _167
REMARK   72  A    between atoms: _167  and  _168
REMARK   73  A    between atoms: _168  and  _169
REMARK   74  A    between atoms: _174  and  _176
REMARK   75  A    between atoms: _176  and  _177
REMARK   76  A    between atoms: _176  and  _179
REMARK   77  A    between atoms: _179  and  _180
REMARK   78  A    between atoms: _185  and  _186
REMARK   79  A    between atoms: _188  and  _190
REMARK   80  A    between atoms: _190  and  _191
REMARK   81  A    between atoms: _190  and  _193
REMARK   82  A    between atoms: _193  and  _194
REMARK   83  A    between atoms: _196  and  _198
REMARK   84  A    between atoms: _198  and  _199
REMARK   85  A    between atoms: _198  and  _201
REMARK   86  A    between atoms: _201  and  _202
REMARK   87  A    between atoms: _205  and  _207
REMARK   88  A    between atoms: _207  and  _208
REMARK   89  A    between atoms: _207  and  _210
REMARK   90  A    between atoms: _210  and  _211
REMARK   91  A    between atoms: _211  and  _212
REMARK   92  A    between atoms: _214  and  _216
REMARK   93  A    between atoms: _216  and  _217
REMARK   94  A    between atoms: _219  and  _221
REMARK   95  A    between atoms: _221  and  _222
REMARK   96  A    between atoms: _221  and  _224
REMARK   97  A    between atoms: _224  and  _225
REMARK   98  A    between atoms: _228  and  _230
REMARK   99  A    between atoms: _230  and  _231
REMARK  100  A    between atoms: _230  and  _233
REMARK  101  A    between atoms: _233  and  _234
REMARK  102  A    between atoms: _234  and  _235
REMARK  103  A    between atoms: _237  and  _239
REMARK  104  A    between atoms: _239  and  _240
REMARK  105  A    between atoms: _239  and  _242
REMARK  106  A    between atoms: _245  and  _247
REMARK  107  A    between atoms: _247  and  _248
REMARK  108  A    between atoms: _247  and  _250
REMARK  109  A    between atoms: _250  and  _251
REMARK  110  A    between atoms: _257  and  _259
REMARK  111  A    between atoms: _259  and  _260
REMARK  112  A    between atoms: _263  and  _265
REMARK  113  A    between atoms: _265  and  _266
REMARK  114  A    between atoms: _265  and  _268
REMARK  115  A    between atoms: _268  and  _269
REMARK  116  A    between atoms: _269  and  _270
REMARK  117  A    between atoms: _272  and  _274
REMARK  118  A    between atoms: _274  and  _275
REMARK  119  A    between atoms: _277  and  _279
REMARK  120  A    between atoms: _279  and  _280
REMARK  121  A    between atoms: _279  and  _282
REMARK  122  A    between atoms: _282  and  _283
REMARK  123  A    between atoms: _293  and  _295
REMARK  124  A    between atoms: _295  and  _296
REMARK  125  A    between atoms: _295  and  _298
REMARK  126  A    between atoms: _298  and  _299
REMARK  127  A    between atoms: _299  and  _300
REMARK  128  A    between atoms: _300  and  _301
REMARK  129  A    between atoms: _310  and  _312
REMARK  130  A    between atoms: _312  and  _313
REMARK  131  A    between atoms: _312  and  _315
REMARK  132  A    between atoms: _315  and  _316
REMARK  133  A    between atoms: _318  and  _320
REMARK  134  A    between atoms: _320  and  _321
REMARK  135  A    between atoms: _320  and  _323
REMARK  136  A    between atoms: _323  and  _324
REMARK  137  A    between atoms: _327  and  _329
REMARK  138  A    between atoms: _329  and  _330
REMARK  139  A    between atoms: _329  and  _332
REMARK  140  A    between atoms: _332  and  _333
REMARK  141  A    between atoms: _338  and  _339
REMARK  142  A    between atoms: _341  and  _343
REMARK  143  A    between atoms: _343  and  _344
REMARK  144  A    between atoms: _343  and  _346
REMARK  145  A    between atoms: _346  and  _347
REMARK  146  A    between atoms: _353  and  _355
REMARK  147  A    between atoms: _355  and  _356
REMARK  148  A    between atoms: _359  and  _361
REMARK  149  A    between atoms: _361  and  _362
REMARK  150  A    between atoms: _361  and  _364
REMARK  151  A    between atoms: _364  and  _365
REMARK  152  A    between atoms: _368  and  _370
REMARK  153  A    between atoms: _370  and  _371
REMARK  154  A    between atoms: _370  and  _373
REMARK  155  A    between atoms: _373  and  _374
REMARK  156  A    between atoms: _380  and  _382
REMARK  157  A    between atoms: _382  and  _383
REMARK  158  A    between atoms: _382  and  _385
REMARK  159  A    between atoms: _385  and  _386
REMARK  160  A    between atoms: _388  and  _390
REMARK  161  A    between atoms: _390  and  _391
REMARK  162  A    between atoms: _390  and  _393
REMARK  163  A    between atoms: _393  and  _394
REMARK  164  A    between atoms: _394  and  _395
REMARK  165  A    between atoms: _397  and  _399
REMARK  166  A    between atoms: _399  and  _400
REMARK  167  A    between atoms: _399  and  _402
REMARK  168  A    between atoms: _402  and  _403
REMARK  169  A    between atoms: _403  and  _404
REMARK  170  A    between atoms: _409  and  _411
REMARK  171  A    between atoms: _411  and  _412
REMARK  172  A    between atoms: _411  and  _414
REMARK  173  A    between atoms: _416  and  _418
REMARK  174  A    between atoms: _418  and  _419
REMARK  175  A    between atoms: _418  and  _421
REMARK  176  A    between atoms: _421  and  _422
REMARK  177  A    between atoms: _422  and  _423
REMARK  178  A    between atoms: _425  and  _427
REMARK  179  A    between atoms: _427  and  _428
REMARK  180  A    between atoms: _427  and  _430
REMARK  181  A    between atoms: _430  and  _431
REMARK  182  A    between atoms: _434  and  _436
REMARK  183  A    between atoms: _436  and  _437
REMARK  184  A    between atoms: _436  and  _439
REMARK  185  A    between atoms: _439  and  _440
REMARK  186  A    between atoms: _443  and  _445
REMARK  187  A    between atoms: _445  and  _446
REMARK  188  A    between atoms: _445  and  _448
REMARK  189  A    between atoms: _451  and  _453
REMARK  190  A    between atoms: _453  and  _454
REMARK  191  A    between atoms: _453  and  _456
REMARK  192  A    between atoms: _456  and  _457
REMARK  193  A    between atoms: _460  and  _462
REMARK  194  A    between atoms: _462  and  _463
REMARK  195  A    between atoms: _466  and  _468
REMARK  196  A    between atoms: _468  and  _469
REMARK  197  A    between atoms: _468  and  _471
REMARK  198  A    between atoms: _471  and  _472
REMARK  199  A    between atoms: _475  and  _477
REMARK  200  A    between atoms: _477  and  _478
REMARK  201  A    between atoms: _477  and  _480
REMARK  202  A    between atoms: _480  and  _481
REMARK  203  A    between atoms: _486  and  _488
REMARK  204  A    between atoms: _488  and  _489
REMARK  205  A    between atoms: _488  and  _491
REMARK  206  A    between atoms: _491  and  _492
REMARK  207  A    between atoms: _498  and  _500
REMARK  208  A    between atoms: _500  and  _501
REMARK  209  A    between atoms: _500  and  _503
REMARK  210  A    between atoms: _503  and  _504
REMARK  211  A    between atoms: _507  and  _509
REMARK  212  A    between atoms: _509  and  _510
REMARK  213  A    between atoms: _509  and  _512
REMARK  214  A    between atoms: _512  and  _513
REMARK  215  A    between atoms: _519  and  _521
REMARK  216  A    between atoms: _521  and  _522
REMARK  217  A    between atoms: _521  and  _524
REMARK  218  A    between atoms: _524  and  _525
REMARK  219  A    between atoms: _528  and  _530
REMARK  220  A    between atoms: _530  and  _531
REMARK  221  A    between atoms: _530  and  _533
REMARK  222  A    between atoms: _533  and  _534
REMARK  223  A    between atoms: _537  and  _539
REMARK  224  A    between atoms: _539  and  _540
REMARK  225  A    between atoms: _539  and  _542
REMARK  226  A    between atoms: _545  and  _547
REMARK  227  A    between atoms: _547  and  _548
REMARK  228  A    between atoms: _547  and  _550
REMARK  229  A    between atoms: _550  and  _551
REMARK  230  A    between atoms: _554  and  _556
REMARK  231  A    between atoms: _556  and  _557
REMARK  232  A    between atoms: _556  and  _559
REMARK  233  A    between atoms: _559  and  _560
REMARK  234  A    between atoms: _567  and  _568
REMARK  235  A    between atoms: _573  and  _575
REMARK  236  A    between atoms: _575  and  _576
REMARK  237  A    between atoms: _575  and  _578
REMARK  238  A    between atoms: _578  and  _579
REMARK  239  A    between atoms: _579  and  _580
REMARK  240  A    between atoms: _582  and  _584
REMARK  241  A    between atoms: _584  and  _585
REMARK  242  A    between atoms: _584  and  _587
REMARK  243  A    between atoms: _587  and  _588
REMARK  244  A    between atoms: _588  and  _589
REMARK  245  A    between atoms: _591  and  _593
REMARK  246  A    between atoms: _593  and  _594
REMARK  247  A    between atoms: _597  and  _599
REMARK  248  A    between atoms: _599  and  _600
REMARK  249  A    between atoms: _599  and  _602
REMARK  250  A    between atoms: _602  and  _603
REMARK  251  A    between atoms: _603  and  _604
REMARK  252  A    between atoms: _607  and  _609
REMARK  253  A    between atoms: _609  and  _610
REMARK  254  A    between atoms: _609  and  _612
REMARK  255  A    between atoms: _612  and  _613
REMARK  256  A    between atoms: _616  and  _618
REMARK  257  A    between atoms: _618  and  _619
REMARK  258  A    between atoms: _618  and  _621
REMARK  259  A    between atoms: _621  and  _622
REMARK  260  A    between atoms: _625  and  _627
REMARK  261  A    between atoms: _627  and  _628
REMARK  262  A    between atoms: _627  and  _630
REMARK  263  A    between atoms: _630  and  _631
REMARK  264  A    between atoms: _633  and  _635
REMARK  265  A    between atoms: _635  and  _636
REMARK  266  A    between atoms: _635  and  _638
REMARK  267  A    between atoms: _641  and  _643
REMARK  268  A    between atoms: _643  and  _644
REMARK  269  A    between atoms: _643  and  _646
REMARK  270  A    between atoms: _646  and  _647
REMARK  271  A    between atoms: _647  and  _648
REMARK  272  A    between atoms: _653  and  _655
REMARK  273  A    between atoms: _655  and  _656
REMARK  274  A    between atoms: _655  and  _658
REMARK  275  A    between atoms: _662  and  _663
REMARK  276  A    between atoms: _668  and  _670
REMARK  277  A    between atoms: _670  and  _671
REMARK  278  A    between atoms: _670  and  _673
REMARK  279  A    between atoms: _673  and  _674
REMARK                            x       y       z     vdW  Elec       q    Type
REMARK                         _______ _______ _______ _____ _____    ______ ____
ROOT
ATOM      1  C   MET A   9      22.235   6.367   8.008  0.00  0.00    +0.241 C 
ATOM      2  N   VAL A  10      21.594   5.241   8.321  0.00  0.00    -0.297 N 
ATOM      3  H   VAL A  10      21.893   4.713   9.165  0.00  0.00    +0.150 HD
ATOM      4  O   MET A   9      21.953   7.053   7.027  0.00  0.00    -0.273 OA
ENDROOT
BRANCH   1   5
ATOM      5  CA  MET A   9      23.368   6.796   8.941  0.00  0.00    +0.149 C 
BRANCH   5   8
ATOM      6  C   LEU A   8      22.094   7.169  10.979  0.00  0.00    +0.241 C 
ATOM      7  O   LEU A   8      21.383   8.021  10.450  0.00  0.00    -0.273 OA
ATOM      8  N   MET A   9      23.062   6.519  10.335  0.00  0.00    -0.297 N 
ATOM      9  H   MET A   9      23.612   5.796  10.841  0.00  0.00    +0.150 HD
BRANCH   6  10
ATOM     10  CA  LEU A   8      21.896   6.793  12.431  0.00  0.00    +0.149 C 
BRANCH  10  12
ATOM     11  C   GLY A   7      21.061   4.558  11.931  0.00  0.00    +0.243 C 
ATOM     12  N   LEU A   8      21.922   5.340  12.577  0.00  0.00    -0.297 N 
ATOM     13  H   LEU A   8      22.631   4.906  13.202  0.00  0.00    +0.150 HD
ATOM     14  O   GLY A   7      20.181   5.005  11.191  0.00  0.00    -0.273 OA
BRANCH  11  15
ATOM     15  CA  GLY A   7      21.210   3.057  12.152  0.00  0.00    +0.176 C 
BRANCH  15  17
ATOM     16  C   MET A   6      23.373   2.770  11.084  0.00  0.00    +0.241 C 
ATOM     17  N   GLY A   7      22.600   2.623  12.160  0.00  0.00    -0.295 N 
ATOM     18  H   GLY A   7      22.996   2.191  13.019  0.00  0.00    +0.150 HD
ATOM     19  O   MET A   6      22.970   3.280  10.033  0.00  0.00    -0.273 OA
BRANCH  16  20
ATOM     20  CA  MET A   6      24.820   2.282  11.198  0.00  0.00    +0.149 C 
BRANCH  20  22
ATOM     21  C   LEU A   5      25.591   4.132  12.549  0.00  0.00    +0.241 C 
ATOM     22  N   MET A   6      25.519   2.812  12.368  0.00  0.00    -0.297 N 
ATOM     23  H   MET A   6      25.957   2.165  13.054  0.00  0.00    +0.150 HD
ATOM     24  O   LEU A   5      25.050   4.935  11.785  0.00  0.00    -0.273 OA
BRANCH  21  25
ATOM     25  CA  LEU A   5      26.366   4.636  13.765  0.00  0.00    +0.149 C 
BRANCH  25  27
ATOM     26  C   SER A   4      24.690   3.913  15.357  0.00  0.00    +0.243 C 
ATOM     27  N   LEU A   5      25.971   3.999  15.016  0.00  0.00    -0.297 N 
ATOM     28  H   LEU A   5      26.699   3.608  15.647  0.00  0.00    +0.150 HD
ATOM     29  O   SER A   4      23.785   4.320  14.634  0.00  0.00    -0.273 OA
BRANCH  26  30
ATOM     30  CA  SER A   4      24.357   3.261  16.695  0.00  0.00    +0.178 C 
BRANCH  30  32
ATOM     31  C   TYR A   3      25.824   1.440  17.309  0.00  0.00    +0.241 C 
ATOM     32  N   SER A   4      25.484   2.716  17.444  0.00  0.00    -0.295 N 
ATOM     33  H   SER A   4      26.024   3.330  18.087  0.00  0.00    +0.150 HD
ATOM     34  O   TYR A   3      25.263   0.684  16.530  0.00  0.00    -0.273 OA
BRANCH  31  35
ATOM     35  CA  TYR A   3      26.979   0.942  18.165  0.00  0.00    +0.153 C 
BRANCH  35  37
ATOM     36  C   GLN A   2      28.739   2.300  17.230  0.00  0.00    +0.241 C 
ATOM     37  N   TYR A   3      28.025   1.946  18.291  0.00  0.00    -0.297 N 
ATOM     38  H   TYR A   3      28.213   2.387  19.214  0.00  0.00    +0.150 HD
ATOM     39  O   GLN A   2      28.566   1.796  16.118  0.00  0.00    -0.273 OA
BRANCH  36  40
ATOM     40  CA  GLN A   2      29.815   3.371  17.442  0.00  0.00    +0.149 C 
BRANCH  40  42
ATOM     41  C   ILE A   1      28.423   5.295  17.975  0.00  0.00    +0.238 C 
ATOM     42  N   GLN A   2      29.385   4.446  18.331  0.00  0.00    -0.297 N 
ATOM     43  H   GLN A   2      29.839   4.551  19.261  0.00  0.00    +0.150 HD
ATOM     44  O   ILE A   1      27.843   5.231  16.890  0.00  0.00    -0.274 OA
BRANCH  41  45
ATOM     45  CA  ILE A   1      28.077   6.390  18.986  0.00  0.00    +0.145 C 
BRANCH  45  46
ATOM     46  N   ILE A   1      27.951   5.850  20.340  0.00  0.00    -0.238 NA
ATOM     47  H   ILE A   1      28.610   6.169  21.079  0.00  0.00    +0.142 HD
ENDBRANCH  45  46
BRANCH  45  48
ATOM     48  CB  ILE A   1      29.183   7.468  18.903  0.00  0.00    +0.025 C 
ATOM     49  CG2 ILE A   1      29.492   7.780  17.449  0.00  0.00    +0.002 C 
BRANCH  48  50
ATOM     50  CG1 ILE A   1      28.748   8.731  19.655  0.00  0.00    +0.002 C 
ATOM     51  CD1 ILE A   1      29.869   9.757  19.823  0.00  0.00    +0.000 C 
ENDBRANCH  48  50
ENDBRANCH  45  48
ENDBRANCH  41  45
ENDBRANCH  40  42
BRANCH  40  52
ATOM     52  CB  GLN A   2      31.092   2.735  17.986  0.00  0.00    +0.039 C 
BRANCH  52  53
ATOM     53  CG  GLN A   2      32.240   3.724  18.106  0.00  0.00    +0.087 C 
BRANCH  53  54
ATOM     54  CD  GLN A   2      33.498   3.100  18.665  0.00  0.00    +0.219 C 
ATOM     55  OE1 GLN A   2      33.458   2.364  19.647  0.00  0.00    -0.275 OA
ATOM     56  NE2 GLN A   2      34.628   3.411  18.052  0.00  0.00    -0.329 N 
ATOM     57 HE21 GLN A   2      35.530   3.028  18.399  0.00  0.00    +0.145 HD
ATOM     58 HE22 GLN A   2      34.614   4.039  17.223  0.00  0.00    +0.145 HD
ENDBRANCH  53  54
ENDBRANCH  52  53
ENDBRANCH  40  52
ENDBRANCH  36  40
ENDBRANCH  35  37
BRANCH  35  59
ATOM     59  CB  TYR A   3      26.425   0.540  19.533  0.00  0.00    +0.055 C 
BRANCH  59  60
ATOM     60  CG  TYR A   3      27.428  -0.127  20.444  0.00  0.00    -0.020 A 
ATOM     61  CD2 TYR A   3      27.394   0.085  21.820  0.00  0.00    -0.001 A 
ATOM     62  CE2 TYR A   3      28.299  -0.543  22.668  0.00  0.00    +0.036 A 
ATOM     63  CZ  TYR A   3      29.250  -1.389  22.134  0.00  0.00    +0.134 A 
ATOM     64  CE1 TYR A   3      29.303  -1.617  20.772  0.00  0.00    +0.036 A 
ATOM     65  CD1 TYR A   3      28.392  -0.985  19.934  0.00  0.00    -0.001 A 
BRANCH  63  66
ATOM     66  OH  TYR A   3      30.160  -2.002  22.963  0.00  0.00    -0.506 OA
ATOM     67  HH  TYR A   3      30.766  -2.570  22.424  0.00  0.00    +0.292 HD
ENDBRANCH  63  66
ENDBRANCH  59  60
ENDBRANCH  35  59
ENDBRANCH  31  35
ENDBRANCH  30  32
BRANCH  30  68
ATOM     68  CB  SER A   4      23.596   4.261  17.575  0.00  0.00    +0.166 C 
BRANCH  68  69
ATOM     69  OG  SER A   4      24.422   5.364  17.924  0.00  0.00    -0.380 OA
ATOM     70  H   SER A   4      25.212   5.038  18.423  0.00  0.00    +0.211 HD
ENDBRANCH  68  69
ENDBRANCH  30  68
ENDBRANCH  26  30
ENDBRANCH  25  27
BRANCH  25  71
ATOM     71  CB  LEU A   5      27.872   4.457  13.510  0.00  0.00    +0.029 C 
BRANCH  71  72
ATOM     72  CG  LEU A   5      28.419   5.033  12.192  0.00  0.00    +0.002 C 
ATOM     73  CD2 LEU A   5      28.288   6.553  12.198  0.00  0.00    +0.000 C 
ATOM     74  CD1 LEU A   5      29.885   4.631  12.009  0.00  0.00    +0.000 C 
ENDBRANCH  71  72
ENDBRANCH  25  71
ENDBRANCH  21  25
ENDBRANCH  20  22
BRANCH  20  75
ATOM     75  CB  MET A   6      24.850   0.746  11.185  0.00  0.00    +0.041 C 
BRANCH  75  76
ATOM     76  CG  MET A   6      24.393   0.146   9.842  0.00  0.00    +0.060 C 
BRANCH  76  77
ATOM     77  SD  MET A   6      25.512   0.544   8.466  0.00  0.00    -0.139 S 
ATOM     78  CE  MET A   6      26.698  -0.853   8.622  0.00  0.00    +0.069 C 
ENDBRANCH  76  77
ENDBRANCH  75  76
ENDBRANCH  20  75
ENDBRANCH  16  20
ENDBRANCH  15  17
ENDBRANCH  11  15
ENDBRANCH  10  12
BRANCH  10  79
ATOM     79  CB  LEU A   8      23.003   7.440  13.268  0.00  0.00    +0.029 C 
BRANCH  79  80
ATOM     80  CG  LEU A   8      22.749   7.475  14.775  0.00  0.00    +0.002 C 
ATOM     81  CD2 LEU A   8      24.014   7.903  15.508  0.00  0.00    +0.000 C 
ATOM     82  CD1 LEU A   8      21.594   8.424  15.071  0.00  0.00    +0.000 C 
ENDBRANCH  79  80
ENDBRANCH  10  79
ENDBRANCH   6  10
ENDBRANCH   5   8
BRANCH   5  83
ATOM     83  CB  MET A   9      24.673   6.106   8.527  0.00  0.00    +0.041 C 
BRANCH  83  84
ATOM     84  CG  MET A   9      25.929   6.612   9.241  0.00  0.00    +0.060 C 
BRANCH  84  85
ATOM     85  SD  MET A   9      27.413   6.078   8.353  0.00  0.00    -0.139 S 
ATOM     86  CE  MET A   9      27.381   4.357   8.694  0.00  0.00    +0.069 C 
ENDBRANCH  84  85
ENDBRANCH  83  84
ENDBRANCH   5  83
ENDBRANCH   1   5
BRANCH   2  87
ATOM     87  CA  VAL A  10      20.484   4.720   7.520  0.00  0.00    +0.149 C 
BRANCH  87  88
ATOM     88  C   VAL A  10      19.288   5.667   7.576  0.00  0.00    +0.241 C 
ATOM     89  N   PHE A  11      18.946   6.091   8.786  0.00  0.00    -0.297 N 
ATOM     90  H   PHE A  11      19.502   5.772   9.605  0.00  0.00    +0.150 HD
ATOM     91  O   VAL A  10      18.689   5.999   6.550  0.00  0.00    -0.273 OA
BRANCH  89  92
ATOM     92  CA  PHE A  11      17.817   6.989   9.008  0.00  0.00    +0.153 C 
BRANCH  92  93
ATOM     93  C   PHE A  11      18.034   8.318   8.287  0.00  0.00    +0.241 C 
ATOM     94  N   ALA A  12      19.198   8.924   8.490  0.00  0.00    -0.297 N 
ATOM     95  H   ALA A  12      19.905   8.488   9.116  0.00  0.00    +0.150 HD
ATOM     96  O   PHE A  11      17.164   8.789   7.551  0.00  0.00    -0.273 OA
BRANCH  94  97
ATOM     97  CA  ALA A  12      19.491  10.194   7.842  0.00  0.00    +0.149 C 
ATOM     98  CB  ALA A  12      20.839  10.729   8.304  0.00  0.00    +0.031 C 
BRANCH  97  99
ATOM     99  C   ALA A  12      19.487  10.024   6.326  0.00  0.00    +0.241 C 
ATOM    100  N   MET A  13      20.023   8.904   5.849  0.00  0.00    -0.297 N 
ATOM    101  H   MET A  13      20.410   8.201   6.510  0.00  0.00    +0.150 HD
ATOM    102  O   ALA A  12      19.004  10.893   5.601  0.00  0.00    -0.273 OA
BRANCH 100 103
ATOM    103  CA  MET A  13      20.077   8.645   4.415  0.00  0.00    +0.149 C 
BRANCH 103 104
ATOM    104  C   MET A  13      18.673   8.528   3.821  0.00  0.00    +0.241 C 
ATOM    105  N   GLY A  14      17.778   7.851   4.532  0.00  0.00    -0.295 N 
ATOM    106  H   GLY A  14      18.054   7.432   5.443  0.00  0.00    +0.150 HD
ATOM    107  O   MET A  13      18.408   9.054   2.740  0.00  0.00    -0.273 OA
BRANCH 105 108
ATOM    108  CA  GLY A  14      16.416   7.691   4.048  0.00  0.00    +0.176 C 
BRANCH 108 109
ATOM    109  C   GLY A  14      15.694   9.024   3.954  0.00  0.00    +0.243 C 
ATOM    110  N   TRP A  15      16.027   9.938   4.861  0.00  0.00    -0.297 N 
ATOM    111  H   TRP A  15      16.740   9.710   5.583  0.00  0.00    +0.150 HD
ATOM    112  O   GLY A  14      14.840   9.229   3.080  0.00  0.00    -0.273 OA
BRANCH 110 113
ATOM    113  CA  TRP A  15      15.405  11.253   4.854  0.00  0.00    +0.153 C 
BRANCH 113 114
ATOM    114  C   TRP A  15      15.953  12.095   3.707  0.00  0.00    +0.241 C 
ATOM    115  N   ARG A  16      17.250  11.976   3.428  0.00  0.00    -0.297 N 
ATOM    116  H   ARG A  16      17.841  11.336   3.996  0.00  0.00    +0.150 HD
ATOM    117  O   TRP A  15      15.204  12.838   3.075  0.00  0.00    -0.273 OA
BRANCH 115 118
ATOM    118  CA  ARG A  16      17.853  12.733   2.334  0.00  0.00    +0.149 C 
BRANCH 118 119
ATOM    119  C   ARG A  16      17.290  12.257   1.001  0.00  0.00    +0.241 C 
ATOM    120  N   SER A  17      17.167  10.942   0.848  0.00  0.00    -0.296 N 
ATOM    121  H   SER A  17      17.454  10.311   1.623  0.00  0.00    +0.150 HD
ATOM    122  O   ARG A  16      16.974  13.067   0.127  0.00  0.00    -0.273 OA
BRANCH 120 123
ATOM    123  CA  SER A  17      16.638  10.365  -0.383  0.00  0.00    +0.166 C 
BRANCH 123 124
ATOM    124  C   SER A  17      15.198  10.816  -0.608  0.00  0.00    +0.229 C 
ATOM    125  O   SER A  17      14.782  11.056  -1.740  0.00  0.00    -0.286 OA
ENDBRANCH 123 124
BRANCH 123 126
ATOM    126  CB  SER A  17      16.693   8.835  -0.325  0.00  0.00    +0.165 C 
BRANCH 126 127
ATOM    127  OG  SER A  17      18.025   8.375  -0.167  0.00  0.00    -0.380 OA
ATOM    128  H   SER A  17      18.400   8.737   0.675  0.00  0.00    +0.211 HD
ENDBRANCH 126 127
ENDBRANCH 123 126
ENDBRANCH 120 123
ENDBRANCH 118 119
BRANCH 118 129
ATOM    129  CB  ARG A  16      19.379  12.569   2.320  0.00  0.00    +0.033 C 
BRANCH 129 130
ATOM    130  CG  ARG A  16      20.107  13.318   3.421  0.00  0.00    +0.045 C 
BRANCH 130 131
ATOM    131  CD  ARG A  16      21.596  13.415   3.103  0.00  0.00    +0.174 C 
BRANCH 131 132
ATOM    132  NE  ARG A  16      22.215  12.102   2.951  0.00  0.00    -0.265 N 
ATOM    133  CZ  ARG A  16      22.552  11.310   3.962  0.00  0.00    +0.342 C 
ATOM    134  NH2 ARG A  16      22.336  11.696   5.211  0.00  0.00    -0.292 N 
ATOM    135 HH21 ARG A  16      22.601  11.074   6.001  0.00  0.00    +0.255 HD
ATOM    136 HH22 ARG A  16      21.901  12.621   5.401  0.00  0.00    +0.255 HD
ATOM    137  NH1 ARG A  16      23.098  10.126   3.721  0.00  0.00    -0.292 N 
ATOM    138 HH11 ARG A  16      23.362   9.505   4.512  0.00  0.00    +0.255 HD
ATOM    139 HH12 ARG A  16      23.262   9.819   2.741  0.00  0.00    +0.255 HD
ATOM    140  HE  ARG A  16      22.405  11.764   1.986  0.00  0.00    +0.259 HD
ENDBRANCH 131 132
ENDBRANCH 130 131
ENDBRANCH 129 130
ENDBRANCH 118 129
ENDBRANCH 115 118
ENDBRANCH 113 114
BRANCH 113 141
ATOM    141  CB  TRP A  15      15.622  11.958   6.201  0.00  0.00    +0.057 C 
BRANCH 141 142
ATOM    142  CG  TRP A  15      15.208  13.410   6.218  0.00  0.00    -0.002 A 
ATOM    143  CD2 TRP A  15      13.911  13.935   6.526  0.00  0.00    +0.013 A 
ATOM    144  CE3 TRP A  15      12.691  13.355   6.900  0.00  0.00    +0.001 A 
ATOM    145  CZ3 TRP A  15      11.596  14.187   7.126  0.00  0.00    +0.000 A 
ATOM    146  CH2 TRP A  15      11.701  15.582   6.987  0.00  0.00    +0.001 A 
ATOM    147  CZ2 TRP A  15      12.882  16.178   6.623  0.00  0.00    +0.017 A 
ATOM    148  CE2 TRP A  15      13.984  15.342   6.394  0.00  0.00    +0.056 A 
ATOM    149  NE1 TRP A  15      15.263  15.653   6.023  0.00  0.00    -0.352 N 
ATOM    150  HE1 TRP A  15      15.625  16.612   5.848  0.00  0.00    +0.166 HD
ATOM    151  CD1 TRP A  15      15.994  14.489   5.919  0.00  0.00    +0.068 A 
ENDBRANCH 141 142
ENDBRANCH 113 141
ENDBRANCH 110 113
ENDBRANCH 108 109
ENDBRANCH 105 108
ENDBRANCH 103 104
BRANCH 103 152
ATOM    152  CB  MET A  13      20.883   7.371   4.137  0.00  0.00    +0.041 C 
BRANCH 152 153
ATOM    153  CG  MET A  13      21.243   7.150   2.670  0.00  0.00    +0.060 C 
BRANCH 153 154
ATOM    154  SD  MET A  13      19.927   6.359   1.721  0.00  0.00    -0.139 S 
ATOM    155  CE  MET A  13      20.008   4.693   2.419  0.00  0.00    +0.069 C 
ENDBRANCH 153 154
ENDBRANCH 152 153
ENDBRANCH 103 152
ENDBRANCH 100 103
ENDBRANCH  97  99
ENDBRANCH  94  97
ENDBRANCH  92  93
BRANCH  92 156
ATOM    156  CB  PHE A  11      17.645   7.230  10.510  0.00  0.00    +0.055 C 
BRANCH 156 157
ATOM    157  CG  PHE A  11      16.279   7.721  10.898  0.00  0.00    -0.020 A 
ATOM    158  CD2 PHE A  11      16.123   8.958  11.518  0.00  0.00    -0.004 A 
ATOM    159  CE2 PHE A  11      14.870   9.404  11.921  0.00  0.00    -0.000 A 
ATOM    160  CZ  PHE A  11      13.748   8.608  11.705  0.00  0.00    -0.000 A 
ATOM    161  CE1 PHE A  11      13.890   7.364  11.080  0.00  0.00    -0.000 A 
ATOM    162  CD1 PHE A  11      15.153   6.929  10.680  0.00  0.00    -0.004 A 
ENDBRANCH 156 157
ENDBRANCH  92 156
ENDBRANCH  89  92
ENDBRANCH  87  88
BRANCH  87 163
ATOM    163  CB  VAL A  10      20.020   3.325   8.035  0.00  0.00    +0.027 C 
ATOM    164  CG2 VAL A  10      21.017   2.249   7.618  0.00  0.00    +0.002 C 
ATOM    165  CG1 VAL A  10      18.641   2.989   7.472  0.00  0.00    +0.002 C 
ENDBRANCH  87 163
ENDBRANCH   2  87
TORSDOF 68
REMARK  Name = ../refined-set-2016/1z95/1z95_pocket.pdb
REMARK  279 active torsions:
REMARK  status: ('A' for Active; 'I' for Inactive)
REMARK    1  A    between atoms: _1  and  _3
REMARK    2  A    between atoms: _3  and  _4
REMARK    3  A    between atoms: _3  and  _6
REMARK    4  A    between atoms: _9  and  _11
REMARK    5  A    between atoms: _11  and  _12
REMARK    6  A    between atoms: _15  and  _17
REMARK    7  A    between atoms: _17  and  _18
REMARK    8  A    between atoms: _17  and  _20
REMARK    9  A    between atoms: _20  and  _21
REMARK   10  A    between atoms: _27  and  _29
REMARK   11  A    between atoms: _29  and  _30
REMARK   12  A    between atoms: _29  and  _32
REMARK   13  A    between atoms: _32  and  _33
REMARK   14  A    between atoms: _36  and  _38
REMARK   15  A    between atoms: _38  and  _39
REMARK   16  A    between atoms: _38  and  _41
REMARK   17  A    between atoms: _41  and  _42
REMARK   18  A    between atoms: _45  and  _47
REMARK   19  A    between atoms: _47  and  _48
REMARK   20  A    between atoms: _47  and  _50
REMARK   21  A    between atoms: _50  and  _51
REMARK   22  A    between atoms: _53  and  _55
REMARK   23  A    between atoms: _55  and  _56
REMARK   24  A    between atoms: _55  and  _58
REMARK   25  A    between atoms: _58  and  _59
REMARK   26  A    between atoms: _61  and  _63
REMARK   27  A    between atoms: _63  and  _64
REMARK   28  A    between atoms: _63  and  _66
REMARK   29  A    between atoms: _66  and  _67
REMARK   30  A    between atoms: _70  and  _72
REMARK   31  A    between atoms: _72  and  _73
REMARK   32  A    between atoms: _72  and  _75
REMARK   33  A    between atoms: _75  and  _76
REMARK   34  A    between atoms: _81  and  _83
REMARK   35  A    between atoms: _83  and  _84
REMARK   36  A    between atoms: _83  and  _86
REMARK   37  A    between atoms: _86  and  _87
REMARK   38  A    between atoms: _87  and  _88
REMARK   39  A    between atoms: _91  and  _93
REMARK   40  A    between atoms: _93  and  _94
REMARK   41  A    between atoms: _93  and  _96
REMARK   42  A    between atoms: _96  and  _97
REMARK   43  A    between atoms: _100  and  _102
REMARK   44  A    between atoms: _102  and  _103
REMARK   45  A    between atoms: _105  and  _107
REMARK   46  A    between atoms: _107  and  _108
REMARK   47  A    between atoms: _107  and  _110
REMARK   48  A    between atoms: _110  and  _111
REMARK   49  A    between atoms: _111  and  _112
REMARK   50  A    between atoms: _115  and  _117
REMARK   51  A    between atoms: _117  and  _118
REMARK   52  A    between atoms: _117  and  _120
REMARK   53  A    between atoms: _120  and  _121
REMARK   54  A    between atoms: _121  and  _122
REMARK   55  A    between atoms: _122  and  _123
REMARK   56  A    between atoms: _132  and  _134
REMARK   57  A    between atoms: _134  and  _135
REMARK   58  A    between atoms: _134  and  _137
REMARK   59  A    between atoms: _137  and  _138
REMARK   60  A    between atoms: _138  and  _139
REMARK   61  A    between atoms: _144  and  _146
REMARK   62  A    between atoms: _146  and  _147
REMARK   63  A    between atoms: _146  and  _149
REMARK   64  A    between atoms: _149  and  _150
REMARK   65  A    between atoms: _153  and  _155
REMARK   66  A    between atoms: _155  and  _156
REMARK   67  A    between atoms: _155  and  _158
REMARK   68  A    between atoms: _158  and  _159
REMARK   69  A    between atoms: _162  and  _164
REMARK   70  A    between atoms: _164  and  _165
REMARK   71  A    between atoms: _164  and  _167
REMARK   72  A    between atoms: _167  and  _168
REMARK   73  A    between atoms: _168  and  _169
REMARK   74  A    between atoms: _174  and  _176
REMARK   75  A    between atoms: _176  and  _177
REMARK   76  A    between atoms: _176  and  _179
REMARK   77  A    between atoms: _179  and  _180
REMARK   78  A    between atoms: _185  and  _186
REMARK   79  A    between atoms: _188  and  _190
REMARK   80  A    between atoms: _190  and  _191
REMARK   81  A    between atoms: _190  and  _193
REMARK   82  A    between atoms: _193  and  _194
REMARK   83  A    between atoms: _196  and  _198
REMARK   84  A    between atoms: _198  and  _199
REMARK   85  A    between atoms: _198  and  _201
REMARK   86  A    between atoms: _201  and  _202
REMARK   87  A    between atoms: _205  and  _207
REMARK   88  A    between atoms: _207  and  _208
REMARK   89  A    between atoms: _207  and  _210
REMARK   90  A    between atoms: _210  and  _211
REMARK   91  A    between atoms: _211  and  _212
REMARK   92  A    between atoms: _214  and  _216
REMARK   93  A    between atoms: _216  and  _217
REMARK   94  A    between atoms: _219  and  _221
REMARK   95  A    between atoms: _221  and  _222
REMARK   96  A    between atoms: _221  and  _224
REMARK   97  A    between atoms: _224  and  _225
REMARK   98  A    between atoms: _228  and  _230
REMARK   99  A    between atoms: _230  and  _231
REMARK  100  A    between atoms: _230  and  _233
REMARK  101  A    between atoms: _233  and  _234
REMARK  102  A    between atoms: _234  and  _235
REMARK  103  A    between atoms: _237  and  _239
REMARK  104  A    between atoms: _239  and  _240
REMARK  105  A    between atoms: _239  and  _242
REMARK  106  A    between atoms: _245  and  _247
REMARK  107  A    between atoms: _247  and  _248
REMARK  108  A    between atoms: _247  and  _250
REMARK  109  A    between atoms: _250  and  _251
REMARK  110  A    between atoms: _257  and  _259
REMARK  111  A    between atoms: _259  and  _260
REMARK  112  A    between atoms: _263  and  _265
REMARK  113  A    between atoms: _265  and  _266
REMARK  114  A    between atoms: _265  and  _268
REMARK  115  A    between atoms: _268  and  _269
REMARK  116  A    between atoms: _269  and  _270
REMARK  117  A    between atoms: _272  and  _274
REMARK  118  A    between atoms: _274  and  _275
REMARK  119  A    between atoms: _277  and  _279
REMARK  120  A    between atoms: _279  and  _280
REMARK  121  A    between atoms: _279  and  _282
REMARK  122  A    between atoms: _282  and  _283
REMARK  123  A    between atoms: _293  and  _295
REMARK  124  A    between atoms: _295  and  _296
REMARK  125  A    between atoms: _295  and  _298
REMARK  126  A    between atoms: _298  and  _299
REMARK  127  A    between atoms: _299  and  _300
REMARK  128  A    between atoms: _300  and  _301
REMARK  129  A    between atoms: _310  and  _312
REMARK  130  A    between atoms: _312  and  _313
REMARK  131  A    between atoms: _312  and  _315
REMARK  132  A    between atoms: _315  and  _316
REMARK  133  A    between atoms: _318  and  _320
REMARK  134  A    between atoms: _320  and  _321
REMARK  135  A    between atoms: _320  and  _323
REMARK  136  A    between atoms: _323  and  _324
REMARK  137  A    between atoms: _327  and  _329
REMARK  138  A    between atoms: _329  and  _330
REMARK  139  A    between atoms: _329  and  _332
REMARK  140  A    between atoms: _332  and  _333
REMARK  141  A    between atoms: _338  and  _339
REMARK  142  A    between atoms: _341  and  _343
REMARK  143  A    between atoms: _343  and  _344
REMARK  144  A    between atoms: _343  and  _346
REMARK  145  A    between atoms: _346  and  _347
REMARK  146  A    between atoms: _353  and  _355
REMARK  147  A    between atoms: _355  and  _356
REMARK  148  A    between atoms: _359  and  _361
REMARK  149  A    between atoms: _361  and  _362
REMARK  150  A    between atoms: _361  and  _364
REMARK  151  A    between atoms: _364  and  _365
REMARK  152  A    between atoms: _368  and  _370
REMARK  153  A    between atoms: _370  and  _371
REMARK  154  A    between atoms: _370  and  _373
REMARK  155  A    between atoms: _373  and  _374
REMARK  156  A    between atoms: _380  and  _382
REMARK  157  A    between atoms: _382  and  _383
REMARK  158  A    between atoms: _382  and  _385
REMARK  159  A    between atoms: _385  and  _386
REMARK  160  A    between atoms: _388  and  _390
REMARK  161  A    between atoms: _390  and  _391
REMARK  162  A    between atoms: _390  and  _393
REMARK  163  A    between atoms: _393  and  _394
REMARK  164  A    between atoms: _394  and  _395
REMARK  165  A    between atoms: _397  and  _399
REMARK  166  A    between atoms: _399  and  _400
REMARK  167  A    between atoms: _399  and  _402
REMARK  168  A    between atoms: _402  and  _403
REMARK  169  A    between atoms: _403  and  _404
REMARK  170  A    between atoms: _409  and  _411
REMARK  171  A    between atoms: _411  and  _412
REMARK  172  A    between atoms: _411  and  _414
REMARK  173  A    between atoms: _416  and  _418
REMARK  174  A    between atoms: _418  and  _419
REMARK  175  A    between atoms: _418  and  _421
REMARK  176  A    between atoms: _421  and  _422
REMARK  177  A    between atoms: _422  and  _423
REMARK  178  A    between atoms: _425  and  _427
REMARK  179  A    between atoms: _427  and  _428
REMARK  180  A    between atoms: _427  and  _430
REMARK  181  A    between atoms: _430  and  _431
REMARK  182  A    between atoms: _434  and  _436
REMARK  183  A    between atoms: _436  and  _437
REMARK  184  A    between atoms: _436  and  _439
REMARK  185  A    between atoms: _439  and  _440
REMARK  186  A    between atoms: _443  and  _445
REMARK  187  A    between atoms: _445  and  _446
REMARK  188  A    between atoms: _445  and  _448
REMARK  189  A    between atoms: _451  and  _453
REMARK  190  A    between atoms: _453  and  _454
REMARK  191  A    between atoms: _453  and  _456
REMARK  192  A    between atoms: _456  and  _457
REMARK  193  A    between atoms: _460  and  _462
REMARK  194  A    between atoms: _462  and  _463
REMARK  195  A    between atoms: _466  and  _468
REMARK  196  A    between atoms: _468  and  _469
REMARK  197  A    between atoms: _468  and  _471
REMARK  198  A    between atoms: _471  and  _472
REMARK  199  A    between atoms: _475  and  _477
REMARK  200  A    between atoms: _477  and  _478
REMARK  201  A    between atoms: _477  and  _480
REMARK  202  A    between atoms: _480  and  _481
REMARK  203  A    between atoms: _486  and  _488
REMARK  204  A    between atoms: _488  and  _489
REMARK  205  A    between atoms: _488  and  _491
REMARK  206  A    between atoms: _491  and  _492
REMARK  207  A    between atoms: _498  and  _500
REMARK  208  A    between atoms: _500  and  _501
REMARK  209  A    between atoms: _500  and  _503
REMARK  210  A    between atoms: _503  and  _504
REMARK  211  A    between atoms: _507  and  _509
REMARK  212  A    between atoms: _509  and  _510
REMARK  213  A    between atoms: _509  and  _512
REMARK  214  A    between atoms: _512  and  _513
REMARK  215  A    between atoms: _519  and  _521
REMARK  216  A    between atoms: _521  and  _522
REMARK  217  A    between atoms: _521  and  _524
REMARK  218  A    between atoms: _524  and  _525
REMARK  219  A    between atoms: _528  and  _530
REMARK  220  A    between atoms: _530  and  _531
REMARK  221  A    between atoms: _530  and  _533
REMARK  222  A    between atoms: _533  and  _534
REMARK  223  A    between atoms: _537  and  _539
REMARK  224  A    between atoms: _539  and  _540
REMARK  225  A    between atoms: _539  and  _542
REMARK  226  A    between atoms: _545  and  _547
REMARK  227  A    between atoms: _547  and  _548
REMARK  228  A    between atoms: _547  and  _550
REMARK  229  A    between atoms: _550  and  _551
REMARK  230  A    between atoms: _554  and  _556
REMARK  231  A    between atoms: _556  and  _557
REMARK  232  A    between atoms: _556  and  _559
REMARK  233  A    between atoms: _559  and  _560
REMARK  234  A    between atoms: _567  and  _568
REMARK  235  A    between atoms: _573  and  _575
REMARK  236  A    between atoms: _575  and  _576
REMARK  237  A    between atoms: _575  and  _578
REMARK  238  A    between atoms: _578  and  _579
REMARK  239  A    between atoms: _579  and  _580
REMARK  240  A    between atoms: _582  and  _584
REMARK  241  A    between atoms: _584  and  _585
REMARK  242  A    between atoms: _584  and  _587
REMARK  243  A    between atoms: _587  and  _588
REMARK  244  A    between atoms: _588  and  _589
REMARK  245  A    between atoms: _591  and  _593
REMARK  246  A    between atoms: _593  and  _594
REMARK  247  A    between atoms: _597  and  _599
REMARK  248  A    between atoms: _599  and  _600
REMARK  249  A    between atoms: _599  and  _602
REMARK  250  A    between atoms: _602  and  _603
REMARK  251  A    between atoms: _603  and  _604
REMARK  252  A    between atoms: _607  and  _609
REMARK  253  A    between atoms: _609  and  _610
REMARK  254  A    between atoms: _609  and  _612
REMARK  255  A    between atoms: _612  and  _613
REMARK  256  A    between atoms: _616  and  _618
REMARK  257  A    between atoms: _618  and  _619
REMARK  258  A    between atoms: _618  and  _621
REMARK  259  A    between atoms: _621  and  _622
REMARK  260  A    between atoms: _625  and  _627
REMARK  261  A    between atoms: _627  and  _628
REMARK  262  A    between atoms: _627  and  _630
REMARK  263  A    between atoms: _630  and  _631
REMARK  264  A    between atoms: _633  and  _635
REMARK  265  A    between atoms: _635  and  _636
REMARK  266  A    between atoms: _635  and  _638
REMARK  267  A    between atoms: _641  and  _643
REMARK  268  A    between atoms: _643  and  _644
REMARK  269  A    between atoms: _643  and  _646
REMARK  270  A    between atoms: _646  and  _647
REMARK  271  A    between atoms: _647  and  _648
REMARK  272  A    between atoms: _653  and  _655
REMARK  273  A    between atoms: _655  and  _656
REMARK  274  A    between atoms: _655  and  _658
REMARK  275  A    between atoms: _662  and  _663
REMARK  276  A    between atoms: _668  and  _670
REMARK  277  A    between atoms: _670  and  _671
REMARK  278  A    between atoms: _670  and  _673
REMARK  279  A    between atoms: _673  and  _674
REMARK                            x       y       z     vdW  Elec       q    Type
REMARK                         _______ _______ _______ _____ _____    ______ ____
ROOT
ATOM      1  CA  TYR A   2      20.960   9.275  -1.894  0.00  0.00    +0.153 C 
ENDROOT
BRANCH   1   3
ATOM      2  C   LEU A   1      20.292   7.023  -2.635  0.00  0.00    +0.238 C 
ATOM      3  N   TYR A   2      20.045   8.140  -1.959  0.00  0.00    -0.297 N 
ATOM      4  H   TYR A   2      19.144   8.210  -1.444  0.00  0.00    +0.150 HD
ATOM      5  O   LEU A   1      21.344   6.816  -3.244  0.00  0.00    -0.274 OA
BRANCH   2   6
ATOM      6  CA  LEU A   1      19.173   5.979  -2.601  0.00  0.00    +0.145 C 
BRANCH   6   7
ATOM      7  N   LEU A   1      18.565   5.832  -3.924  0.00  0.00    -0.238 NA
ATOM      8  H   LEU A   1      19.004   5.194  -4.618  0.00  0.00    +0.142 HD
ENDBRANCH   6   7
BRANCH   6   9
ATOM      9  CB  LEU A   1      19.710   4.637  -2.105  0.00  0.00    +0.026 C 
BRANCH   9  10
ATOM     10  CG  LEU A   1      18.625   3.608  -1.767  0.00  0.00    +0.002 C 
ATOM     11  CD2 LEU A   1      17.650   4.210  -0.750  0.00  0.00    +0.000 C 
ATOM     12  CD1 LEU A   1      19.267   2.352  -1.202  0.00  0.00    +0.000 C 
ENDBRANCH   9  10
ENDBRANCH   6   9
ENDBRANCH   2   6
ENDBRANCH   1   3
BRANCH   1  13
ATOM     13  C   TYR A   2      21.999   9.170  -0.765  0.00  0.00    +0.241 C 
ATOM     14  O   TYR A   2      21.910   9.886   0.229  0.00  0.00    -0.273 OA
ATOM     15  N   PHE A   3      22.989   8.294  -0.912  0.00  0.00    -0.297 N 
ATOM     16  H   PHE A   3      23.035   7.706  -1.769  0.00  0.00    +0.150 HD
BRANCH  15  17
ATOM     17  CA  PHE A   3      24.013   8.151   0.122  0.00  0.00    +0.153 C 
BRANCH  17  18
ATOM     18  C   PHE A   3      24.783   9.451   0.304  0.00  0.00    +0.241 C 
ATOM     19  O   PHE A   3      25.070   9.870   1.426  0.00  0.00    -0.273 OA
ATOM     20  N   ALA A   4      25.123  10.069  -0.820  0.00  0.00    -0.298 N 
ATOM     21  H   ALA A   4      24.865   9.628  -1.726  0.00  0.00    +0.150 HD
BRANCH  20  22
ATOM     22  CA  ALA A   4      25.841  11.337  -0.845  0.00  0.00    +0.137 C 
ATOM     23  CB  ALA A   4      27.342  11.102  -0.674  0.00  0.00    +0.030 C 
BRANCH  22  24
ATOM     24  C   ALA A   4      25.558  11.952  -2.211  0.00  0.00    +0.227 C 
ATOM     25  O   ALA A   4      25.122  11.257  -3.123  0.00  0.00    -0.286 OA
ENDBRANCH  22  24
ENDBRANCH  20  22
ENDBRANCH  17  18
BRANCH  17  26
ATOM     26  CB  PHE A   3      24.987   7.029  -0.235  0.00  0.00    +0.055 C 
BRANCH  26  27
ATOM     27  CG  PHE A   3      24.369   5.666  -0.191  0.00  0.00    -0.020 A 
ATOM     28  CD2 PHE A   3      24.235   4.996   1.018  0.00  0.00    -0.004 A 
ATOM     29  CE2 PHE A   3      23.633   3.748   1.076  0.00  0.00    -0.000 A 
ATOM     30  CZ  PHE A   3      23.153   3.153  -0.087  0.00  0.00    -0.000 A 
ATOM     31  CE1 PHE A   3      23.280   3.810  -1.301  0.00  0.00    -0.000 A 
ATOM     32  CD1 PHE A   3      23.889   5.066  -1.349  0.00  0.00    -0.004 A 
ENDBRANCH  26  27
ENDBRANCH  17  26
ENDBRANCH  15  17
ENDBRANCH   1  13
BRANCH   1  33
ATOM     33  CB  TYR A   2      20.121  10.547  -1.707  0.00  0.00    +0.055 C 
BRANCH  33  34
ATOM     34  CG  TYR A   2      20.752  11.828  -2.193  0.00  0.00    -0.020 A 
ATOM     35  CD2 TYR A   2      21.357  12.715  -1.300  0.00  0.00    -0.001 A 
ATOM     36  CE2 TYR A   2      21.920  13.916  -1.744  0.00  0.00    +0.036 A 
ATOM     37  CZ  TYR A   2      21.876  14.235  -3.093  0.00  0.00    +0.134 A 
ATOM     38  CE1 TYR A   2      21.284  13.372  -3.999  0.00  0.00    +0.036 A 
ATOM     39  CD1 TYR A   2      20.725  12.172  -3.546  0.00  0.00    -0.001 A 
BRANCH  37  40
ATOM     40  OH  TYR A   2      22.417  15.422  -3.534  0.00  0.00    -0.506 OA
ATOM     41  HH  TYR A   2      22.302  15.492  -4.515  0.00  0.00    +0.292 HD
ENDBRANCH  37  40
ENDBRANCH  33  34
ENDBRANCH   1  33
TORSDOF 15
REMARK  Name = ../refined-set-2016/1z95/1z95_pocket.pdb
REMARK  279 active torsions:
REMARK  status: ('A' for Active; 'I' for Inactive)
REMARK    1  A    between atoms: _1  and  _3
REMARK    2  A    between atoms: _3  and  _4
REMARK    3  A    between atoms: _3  and  _6
REMARK    4  A    between atoms: _9  and  _11
REMARK    5  A    between atoms: _11  and  _12
REMARK    6  A    between atoms: _15  and  _17
REMARK    7  A    between atoms: _17  and  _18
REMARK    8  A    between atoms: _17  and  _20
REMARK    9  A    between atoms: _20  and  _21
REMARK   10  A    between atoms: _27  and  _29
REMARK   11  A    between atoms: _29  and  _30
REMARK   12  A    between atoms: _29  and  _32
REMARK   13  A    between atoms: _32  and  _33
REMARK   14  A    between atoms: _36  and  _38
REMARK   15  A    between atoms: _38  and  _39
REMARK   16  A    between atoms: _38  and  _41
REMARK   17  A    between atoms: _41  and  _42
REMARK   18  A    between atoms: _45  and  _47
REMARK   19  A    between atoms: _47  and  _48
REMARK   20  A    between atoms: _47  and  _50
REMARK   21  A    between atoms: _50  and  _51
REMARK   22  A    between atoms: _53  and  _55
REMARK   23  A    between atoms: _55  and  _56
REMARK   24  A    between atoms: _55  and  _58
REMARK   25  A    between atoms: _58  and  _59
REMARK   26  A    between atoms: _61  and  _63
REMARK   27  A    between atoms: _63  and  _64
REMARK   28  A    between atoms: _63  and  _66
REMARK   29  A    between atoms: _66  and  _67
REMARK   30  A    between atoms: _70  and  _72
REMARK   31  A    between atoms: _72  and  _73
REMARK   32  A    between atoms: _72  and  _75
REMARK   33  A    between atoms: _75  and  _76
REMARK   34  A    between atoms: _81  and  _83
REMARK   35  A    between atoms: _83  and  _84
REMARK   36  A    between atoms: _83  and  _86
REMARK   37  A    between atoms: _86  and  _87
REMARK   38  A    between atoms: _87  and  _88
REMARK   39  A    between atoms: _91  and  _93
REMARK   40  A    between atoms: _93  and  _94
REMARK   41  A    between atoms: _93  and  _96
REMARK   42  A    between atoms: _96  and  _97
REMARK   43  A    between atoms: _100  and  _102
REMARK   44  A    between atoms: _102  and  _103
REMARK   45  A    between atoms: _105  and  _107
REMARK   46  A    between atoms: _107  and  _108
REMARK   47  A    between atoms: _107  and  _110
REMARK   48  A    between atoms: _110  and  _111
REMARK   49  A    between atoms: _111  and  _112
REMARK   50  A    between atoms: _115  and  _117
REMARK   51  A    between atoms: _117  and  _118
REMARK   52  A    between atoms: _117  and  _120
REMARK   53  A    between atoms: _120  and  _121
REMARK   54  A    between atoms: _121  and  _122
REMARK   55  A    between atoms: _122  and  _123
REMARK   56  A    between atoms: _132  and  _134
REMARK   57  A    between atoms: _134  and  _135
REMARK   58  A    between atoms: _134  and  _137
REMARK   59  A    between atoms: _137  and  _138
REMARK   60  A    between atoms: _138  and  _139
REMARK   61  A    between atoms: _144  and  _146
REMARK   62  A    between atoms: _146  and  _147
REMARK   63  A    between atoms: _146  and  _149
REMARK   64  A    between atoms: _149  and  _150
REMARK   65  A    between atoms: _153  and  _155
REMARK   66  A    between atoms: _155  and  _156
REMARK   67  A    between atoms: _155  and  _158
REMARK   68  A    between atoms: _158  and  _159
REMARK   69  A    between atoms: _162  and  _164
REMARK   70  A    between atoms: _164  and  _165
REMARK   71  A    between atoms: _164  and  _167
REMARK   72  A    between atoms: _167  and  _168
REMARK   73  A    between atoms: _168  and  _169
REMARK   74  A    between atoms: _174  and  _176
REMARK   75  A    between atoms: _176  and  _177
REMARK   76  A    between atoms: _176  and  _179
REMARK   77  A    between atoms: _179  and  _180
REMARK   78  A    between atoms: _185  and  _186
REMARK   79  A    between atoms: _188  and  _190
REMARK   80  A    between atoms: _190  and  _191
REMARK   81  A    between atoms: _190  and  _193
REMARK   82  A    between atoms: _193  and  _194
REMARK   83  A    between atoms: _196  and  _198
REMARK   84  A    between atoms: _198  and  _199
REMARK   85  A    between atoms: _198  and  _201
REMARK   86  A    between atoms: _201  and  _202
REMARK   87  A    between atoms: _205  and  _207
REMARK   88  A    between atoms: _207  and  _208
REMARK   89  A    between atoms: _207  and  _210
REMARK   90  A    between atoms: _210  and  _211
REMARK   91  A    between atoms: _211  and  _212
REMARK   92  A    between atoms: _214  and  _216
REMARK   93  A    between atoms: _216  and  _217
REMARK   94  A    between atoms: _219  and  _221
REMARK   95  A    between atoms: _221  and  _222
REMARK   96  A    between atoms: _221  and  _224
REMARK   97  A    between atoms: _224  and  _225
REMARK   98  A    between atoms: _228  and  _230
REMARK   99  A    between atoms: _230  and  _231
REMARK  100  A    between atoms: _230  and  _233
REMARK  101  A    between atoms: _233  and  _234
REMARK  102  A    between atoms: _234  and  _235
REMARK  103  A    between atoms: _237  and  _239
REMARK  104  A    between atoms: _239  and  _240
REMARK  105  A    between atoms: _239  and  _242
REMARK  106  A    between atoms: _245  and  _247
REMARK  107  A    between atoms: _247  and  _248
REMARK  108  A    between atoms: _247  and  _250
REMARK  109  A    between atoms: _250  and  _251
REMARK  110  A    between atoms: _257  and  _259
REMARK  111  A    between atoms: _259  and  _260
REMARK  112  A    between atoms: _263  and  _265
REMARK  113  A    between atoms: _265  and  _266
REMARK  114  A    between atoms: _265  and  _268
REMARK  115  A    between atoms: _268  and  _269
REMARK  116  A    between atoms: _269  and  _270
REMARK  117  A    between atoms: _272  and  _274
REMARK  118  A    between atoms: _274  and  _275
REMARK  119  A    between atoms: _277  and  _279
REMARK  120  A    between atoms: _279  and  _280
REMARK  121  A    between atoms: _279  and  _282
REMARK  122  A    between atoms: _282  and  _283
REMARK  123  A    between atoms: _293  and  _295
REMARK  124  A    between atoms: _295  and  _296
REMARK  125  A    between atoms: _295  and  _298
REMARK  126  A    between atoms: _298  and  _299
REMARK  127  A    between atoms: _299  and  _300
REMARK  128  A    between atoms: _300  and  _301
REMARK  129  A    between atoms: _310  and  _312
REMARK  130  A    between atoms: _312  and  _313
REMARK  131  A    between atoms: _312  and  _315
REMARK  132  A    between atoms: _315  and  _316
REMARK  133  A    between atoms: _318  and  _320
REMARK  134  A    between atoms: _320  and  _321
REMARK  135  A    between atoms: _320  and  _323
REMARK  136  A    between atoms: _323  and  _324
REMARK  137  A    between atoms: _327  and  _329
REMARK  138  A    between atoms: _329  and  _330
REMARK  139  A    between atoms: _329  and  _332
REMARK  140  A    between atoms: _332  and  _333
REMARK  141  A    between atoms: _338  and  _339
REMARK  142  A    between atoms: _341  and  _343
REMARK  143  A    between atoms: _343  and  _344
REMARK  144  A    between atoms: _343  and  _346
REMARK  145  A    between atoms: _346  and  _347
REMARK  146  A    between atoms: _353  and  _355
REMARK  147  A    between atoms: _355  and  _356
REMARK  148  A    between atoms: _359  and  _361
REMARK  149  A    between atoms: _361  and  _362
REMARK  150  A    between atoms: _361  and  _364
REMARK  151  A    between atoms: _364  and  _365
REMARK  152  A    between atoms: _368  and  _370
REMARK  153  A    between atoms: _370  and  _371
REMARK  154  A    between atoms: _370  and  _373
REMARK  155  A    between atoms: _373  and  _374
REMARK  156  A    between atoms: _380  and  _382
REMARK  157  A    between atoms: _382  and  _383
REMARK  158  A    between atoms: _382  and  _385
REMARK  159  A    between atoms: _385  and  _386
REMARK  160  A    between atoms: _388  and  _390
REMARK  161  A    between atoms: _390  and  _391
REMARK  162  A    between atoms: _390  and  _393
REMARK  163  A    between atoms: _393  and  _394
REMARK  164  A    between atoms: _394  and  _395
REMARK  165  A    between atoms: _397  and  _399
REMARK  166  A    between atoms: _399  and  _400
REMARK  167  A    between atoms: _399  and  _402
REMARK  168  A    between atoms: _402  and  _403
REMARK  169  A    between atoms: _403  and  _404
REMARK  170  A    between atoms: _409  and  _411
REMARK  171  A    between atoms: _411  and  _412
REMARK  172  A    between atoms: _411  and  _414
REMARK  173  A    between atoms: _416  and  _418
REMARK  174  A    between atoms: _418  and  _419
REMARK  175  A    between atoms: _418  and  _421
REMARK  176  A    between atoms: _421  and  _422
REMARK  177  A    between atoms: _422  and  _423
REMARK  178  A    between atoms: _425  and  _427
REMARK  179  A    between atoms: _427  and  _428
REMARK  180  A    between atoms: _427  and  _430
REMARK  181  A    between atoms: _430  and  _431
REMARK  182  A    between atoms: _434  and  _436
REMARK  183  A    between atoms: _436  and  _437
REMARK  184  A    between atoms: _436  and  _439
REMARK  185  A    between atoms: _439  and  _440
REMARK  186  A    between atoms: _443  and  _445
REMARK  187  A    between atoms: _445  and  _446
REMARK  188  A    between atoms: _445  and  _448
REMARK  189  A    between atoms: _451  and  _453
REMARK  190  A    between atoms: _453  and  _454
REMARK  191  A    between atoms: _453  and  _456
REMARK  192  A    between atoms: _456  and  _457
REMARK  193  A    between atoms: _460  and  _462
REMARK  194  A    between atoms: _462  and  _463
REMARK  195  A    between atoms: _466  and  _468
REMARK  196  A    between atoms: _468  and  _469
REMARK  197  A    between atoms: _468  and  _471
REMARK  198  A    between atoms: _471  and  _472
REMARK  199  A    between atoms: _475  and  _477
REMARK  200  A    between atoms: _477  and  _478
REMARK  201  A    between atoms: _477  and  _480
REMARK  202  A    between atoms: _480  and  _481
REMARK  203  A    between atoms: _486  and  _488
REMARK  204  A    between atoms: _488  and  _489
REMARK  205  A    between atoms: _488  and  _491
REMARK  206  A    between atoms: _491  and  _492
REMARK  207  A    between atoms: _498  and  _500
REMARK  208  A    between atoms: _500  and  _501
REMARK  209  A    between atoms: _500  and  _503
REMARK  210  A    between atoms: _503  and  _504
REMARK  211  A    between atoms: _507  and  _509
REMARK  212  A    between atoms: _509  and  _510
REMARK  213  A    between atoms: _509  and  _512
REMARK  214  A    between atoms: _512  and  _513
REMARK  215  A    between atoms: _519  and  _521
REMARK  216  A    between atoms: _521  and  _522
REMARK  217  A    between atoms: _521  and  _524
REMARK  218  A    between atoms: _524  and  _525
REMARK  219  A    between atoms: _528  and  _530
REMARK  220  A    between atoms: _530  and  _531
REMARK  221  A    between atoms: _530  and  _533
REMARK  222  A    between atoms: _533  and  _534
REMARK  223  A    between atoms: _537  and  _539
REMARK  224  A    between atoms: _539  and  _540
REMARK  225  A    between atoms: _539  and  _542
REMARK  226  A    between atoms: _545  and  _547
REMARK  227  A    between atoms: _547  and  _548
REMARK  228  A    between atoms: _547  and  _550
REMARK  229  A    between atoms: _550  and  _551
REMARK  230  A    between atoms: _554  and  _556
REMARK  231  A    between atoms: _556  and  _557
REMARK  232  A    between atoms: _556  and  _559
REMARK  233  A    between atoms: _559  and  _560
REMARK  234  A    between atoms: _567  and  _568
REMARK  235  A    between atoms: _573  and  _575
REMARK  236  A    between atoms: _575  and  _576
REMARK  237  A    between atoms: _575  and  _578
REMARK  238  A    between atoms: _578  and  _579
REMARK  239  A    between atoms: _579  and  _580
REMARK  240  A    between atoms: _582  and  _584
REMARK  241  A    between atoms: _584  and  _585
REMARK  242  A    between atoms: _584  and  _587
REMARK  243  A    between atoms: _587  and  _588
REMARK  244  A    between atoms: _588  and  _589
REMARK  245  A    between atoms: _591  and  _593
REMARK  246  A    between atoms: _593  and  _594
REMARK  247  A    between atoms: _597  and  _599
REMARK  248  A    between atoms: _599  and  _600
REMARK  249  A    between atoms: _599  and  _602
REMARK  250  A    between atoms: _602  and  _603
REMARK  251  A    between atoms: _603  and  _604
REMARK  252  A    between atoms: _607  and  _609
REMARK  253  A    between atoms: _609  and  _610
REMARK  254  A    between atoms: _609  and  _612
REMARK  255  A    between atoms: _612  and  _613
REMARK  256  A    between atoms: _616  and  _618
REMARK  257  A    between atoms: _618  and  _619
REMARK  258  A    between atoms: _618  and  _621
REMARK  259  A    between atoms: _621  and  _622
REMARK  260  A    between atoms: _625  and  _627
REMARK  261  A    between atoms: _627  and  _628
REMARK  262  A    between atoms: _627  and  _630
REMARK  263  A    between atoms: _630  and  _631
REMARK  264  A    between atoms: _633  and  _635
REMARK  265  A    between atoms: _635  and  _636
REMARK  266  A    between atoms: _635  and  _638
REMARK  267  A    between atoms: _641  and  _643
REMARK  268  A    between atoms: _643  and  _644
REMARK  269  A    between atoms: _643  and  _646
REMARK  270  A    between atoms: _646  and  _647
REMARK  271  A    between atoms: _647  and  _648
REMARK  272  A    between atoms: _653  and  _655
REMARK  273  A    between atoms: _655  and  _656
REMARK  274  A    between atoms: _655  and  _658
REMARK  275  A    between atoms: _662  and  _663
REMARK  276  A    between atoms: _668  and  _670
REMARK  277  A    between atoms: _670  and  _671
REMARK  278  A    between atoms: _670  and  _673
REMARK  279  A    between atoms: _673  and  _674
REMARK                            x       y       z     vdW  Elec       q    Type
REMARK                         _______ _______ _______ _____ _____    ______ ____
ROOT
ATOM      1  CA  LEU A   1      27.179   8.599  -4.620  0.00  0.00    +0.133 C 
ENDROOT
BRANCH   1   2
ATOM      2  N   LEU A   1      27.333  10.050  -4.709  0.00  0.00    -0.239 NA
ATOM      3  H   LEU A   1      26.662  10.666  -4.206  0.00  0.00    +0.142 HD
ENDBRANCH   1   2
BRANCH   1   4
ATOM      4  C   LEU A   1      25.700   8.244  -4.475  0.00  0.00    +0.224 C 
ATOM      5  O   LEU A   1      25.229   7.866  -3.400  0.00  0.00    -0.287 OA
ENDBRANCH   1   4
BRANCH   1   6
ATOM      6  CB  LEU A   1      27.976   8.035  -3.437  0.00  0.00    +0.025 C 
BRANCH   6   7
ATOM      7  CG  LEU A   1      28.092   6.506  -3.363  0.00  0.00    +0.002 C 
ATOM      8  CD2 LEU A   1      28.865   6.112  -2.108  0.00  0.00    +0.000 C 
ATOM      9  CD1 LEU A   1      28.787   5.967  -4.611  0.00  0.00    +0.000 C 
ENDBRANCH   6   7
ENDBRANCH   1   6
TORSDOF 4
REMARK  Name = ../refined-set-2016/1z95/1z95_pocket.pdb
REMARK  279 active torsions:
REMARK  status: ('A' for Active; 'I' for Inactive)
REMARK    1  A    between atoms: _1  and  _3
REMARK    2  A    between atoms: _3  and  _4
REMARK    3  A    between atoms: _3  and  _6
REMARK    4  A    between atoms: _9  and  _11
REMARK    5  A    between atoms: _11  and  _12
REMARK    6  A    between atoms: _15  and  _17
REMARK    7  A    between atoms: _17  and  _18
REMARK    8  A    between atoms: _17  and  _20
REMARK    9  A    between atoms: _20  and  _21
REMARK   10  A    between atoms: _27  and  _29
REMARK   11  A    between atoms: _29  and  _30
REMARK   12  A    between atoms: _29  and  _32
REMARK   13  A    between atoms: _32  and  _33
REMARK   14  A    between atoms: _36  and  _38
REMARK   15  A    between atoms: _38  and  _39
REMARK   16  A    between atoms: _38  and  _41
REMARK   17  A    between atoms: _41  and  _42
REMARK   18  A    between atoms: _45  and  _47
REMARK   19  A    between atoms: _47  and  _48
REMARK   20  A    between atoms: _47  and  _50
REMARK   21  A    between atoms: _50  and  _51
REMARK   22  A    between atoms: _53  and  _55
REMARK   23  A    between atoms: _55  and  _56
REMARK   24  A    between atoms: _55  and  _58
REMARK   25  A    between atoms: _58  and  _59
REMARK   26  A    between atoms: _61  and  _63
REMARK   27  A    between atoms: _63  and  _64
REMARK   28  A    between atoms: _63  and  _66
REMARK   29  A    between atoms: _66  and  _67
REMARK   30  A    between atoms: _70  and  _72
REMARK   31  A    between atoms: _72  and  _73
REMARK   32  A    between atoms: _72  and  _75
REMARK   33  A    between atoms: _75  and  _76
REMARK   34  A    between atoms: _81  and  _83
REMARK   35  A    between atoms: _83  and  _84
REMARK   36  A    between atoms: _83  and  _86
REMARK   37  A    between atoms: _86  and  _87
REMARK   38  A    between atoms: _87  and  _88
REMARK   39  A    between atoms: _91  and  _93
REMARK   40  A    between atoms: _93  and  _94
REMARK   41  A    between atoms: _93  and  _96
REMARK   42  A    between atoms: _96  and  _97
REMARK   43  A    between atoms: _100  and  _102
REMARK   44  A    between atoms: _102  and  _103
REMARK   45  A    between atoms: _105  and  _107
REMARK   46  A    between atoms: _107  and  _108
REMARK   47  A    between atoms: _107  and  _110
REMARK   48  A    between atoms: _110  and  _111
REMARK   49  A    between atoms: _111  and  _112
REMARK   50  A    between atoms: _115  and  _117
REMARK   51  A    between atoms: _117  and  _118
REMARK   52  A    between atoms: _117  and  _120
REMARK   53  A    between atoms: _120  and  _121
REMARK   54  A    between atoms: _121  and  _122
REMARK   55  A    between atoms: _122  and  _123
REMARK   56  A    between atoms: _132  and  _134
REMARK   57  A    between atoms: _134  and  _135
REMARK   58  A    between atoms: _134  and  _137
REMARK   59  A    between atoms: _137  and  _138
REMARK   60  A    between atoms: _138  and  _139
REMARK   61  A    between atoms: _144  and  _146
REMARK   62  A    between atoms: _146  and  _147
REMARK   63  A    between atoms: _146  and  _149
REMARK   64  A    between atoms: _149  and  _150
REMARK   65  A    between atoms: _153  and  _155
REMARK   66  A    between atoms: _155  and  _156
REMARK   67  A    between atoms: _155  and  _158
REMARK   68  A    between atoms: _158  and  _159
REMARK   69  A    between atoms: _162  and  _164
REMARK   70  A    between atoms: _164  and  _165
REMARK   71  A    between atoms: _164  and  _167
REMARK   72  A    between atoms: _167  and  _168
REMARK   73  A    between atoms: _168  and  _169
REMARK   74  A    between atoms: _174  and  _176
REMARK   75  A    between atoms: _176  and  _177
REMARK   76  A    between atoms: _176  and  _179
REMARK   77  A    between atoms: _179  and  _180
REMARK   78  A    between atoms: _185  and  _186
REMARK   79  A    between atoms: _188  and  _190
REMARK   80  A    between atoms: _190  and  _191
REMARK   81  A    between atoms: _190  and  _193
REMARK   82  A    between atoms: _193  and  _194
REMARK   83  A    between atoms: _196  and  _198
REMARK   84  A    between atoms: _198  and  _199
REMARK   85  A    between atoms: _198  and  _201
REMARK   86  A    between atoms: _201  and  _202
REMARK   87  A    between atoms: _205  and  _207
REMARK   88  A    between atoms: _207  and  _208
REMARK   89  A    between atoms: _207  and  _210
REMARK   90  A    between atoms: _210  and  _211
REMARK   91  A    between atoms: _211  and  _212
REMARK   92  A    between atoms: _214  and  _216
REMARK   93  A    between atoms: _216  and  _217
REMARK   94  A    between atoms: _219  and  _221
REMARK   95  A    between atoms: _221  and  _222
REMARK   96  A    between atoms: _221  and  _224
REMARK   97  A    between atoms: _224  and  _225
REMARK   98  A    between atoms: _228  and  _230
REMARK   99  A    between atoms: _230  and  _231
REMARK  100  A    between atoms: _230  and  _233
REMARK  101  A    between atoms: _233  and  _234
REMARK  102  A    between atoms: _234  and  _235
REMARK  103  A    between atoms: _237  and  _239
REMARK  104  A    between atoms: _239  and  _240
REMARK  105  A    between atoms: _239  and  _242
REMARK  106  A    between atoms: _245  and  _247
REMARK  107  A    between atoms: _247  and  _248
REMARK  108  A    between atoms: _247  and  _250
REMARK  109  A    between atoms: _250  and  _251
REMARK  110  A    between atoms: _257  and  _259
REMARK  111  A    between atoms: _259  and  _260
REMARK  112  A    between atoms: _263  and  _265
REMARK  113  A    between atoms: _265  and  _266
REMARK  114  A    between atoms: _265  and  _268
REMARK  115  A    between atoms: _268  and  _269
REMARK  116  A    between atoms: _269  and  _270
REMARK  117  A    between atoms: _272  and  _274
REMARK  118  A    between atoms: _274  and  _275
REMARK  119  A    between atoms: _277  and  _279
REMARK  120  A    between atoms: _279  and  _280
REMARK  121  A    between atoms: _279  and  _282
REMARK  122  A    between atoms: _282  and  _283
REMARK  123  A    between atoms: _293  and  _295
REMARK  124  A    between atoms: _295  and  _296
REMARK  125  A    between atoms: _295  and  _298
REMARK  126  A    between atoms: _298  and  _299
REMARK  127  A    between atoms: _299  and  _300
REMARK  128  A    between atoms: _300  and  _301
REMARK  129  A    between atoms: _310  and  _312
REMARK  130  A    between atoms: _312  and  _313
REMARK  131  A    between atoms: _312  and  _315
REMARK  132  A    between atoms: _315  and  _316
REMARK  133  A    between atoms: _318  and  _320
REMARK  134  A    between atoms: _320  and  _321
REMARK  135  A    between atoms: _320  and  _323
REMARK  136  A    between atoms: _323  and  _324
REMARK  137  A    between atoms: _327  and  _329
REMARK  138  A    between atoms: _329  and  _330
REMARK  139  A    between atoms: _329  and  _332
REMARK  140  A    between atoms: _332  and  _333
REMARK  141  A    between atoms: _338  and  _339
REMARK  142  A    between atoms: _341  and  _343
REMARK  143  A    between atoms: _343  and  _344
REMARK  144  A    between atoms: _343  and  _346
REMARK  145  A    between atoms: _346  and  _347
REMARK  146  A    between atoms: _353  and  _355
REMARK  147  A    between atoms: _355  and  _356
REMARK  148  A    between atoms: _359  and  _361
REMARK  149  A    between atoms: _361  and  _362
REMARK  150  A    between atoms: _361  and  _364
REMARK  151  A    between atoms: _364  and  _365
REMARK  152  A    between atoms: _368  and  _370
REMARK  153  A    between atoms: _370  and  _371
REMARK  154  A    between atoms: _370  and  _373
REMARK  155  A    between atoms: _373  and  _374
REMARK  156  A    between atoms: _380  and  _382
REMARK  157  A    between atoms: _382  and  _383
REMARK  158  A    between atoms: _382  and  _385
REMARK  159  A    between atoms: _385  and  _386
REMARK  160  A    between atoms: _388  and  _390
REMARK  161  A    between atoms: _390  and  _391
REMARK  162  A    between atoms: _390  and  _393
REMARK  163  A    between atoms: _393  and  _394
REMARK  164  A    between atoms: _394  and  _395
REMARK  165  A    between atoms: _397  and  _399
REMARK  166  A    between atoms: _399  and  _400
REMARK  167  A    between atoms: _399  and  _402
REMARK  168  A    between atoms: _402  and  _403
REMARK  169  A    between atoms: _403  and  _404
REMARK  170  A    between atoms: _409  and  _411
REMARK  171  A    between atoms: _411  and  _412
REMARK  172  A    between atoms: _411  and  _414
REMARK  173  A    between atoms: _416  and  _418
REMARK  174  A    between atoms: _418  and  _419
REMARK  175  A    between atoms: _418  and  _421
REMARK  176  A    between atoms: _421  and  _422
REMARK  177  A    between atoms: _422  and  _423
REMARK  178  A    between atoms: _425  and  _427
REMARK  179  A    between atoms: _427  and  _428
REMARK  180  A    between atoms: _427  and  _430
REMARK  181  A    between atoms: _430  and  _431
REMARK  182  A    between atoms: _434  and  _436
REMARK  183  A    between atoms: _436  and  _437
REMARK  184  A    between atoms: _436  and  _439
REMARK  185  A    between atoms: _439  and  _440
REMARK  186  A    between atoms: _443  and  _445
REMARK  187  A    between atoms: _445  and  _446
REMARK  188  A    between atoms: _445  and  _448
REMARK  189  A    between atoms: _451  and  _453
REMARK  190  A    between atoms: _453  and  _454
REMARK  191  A    between atoms: _453  and  _456
REMARK  192  A    between atoms: _456  and  _457
REMARK  193  A    between atoms: _460  and  _462
REMARK  194  A    between atoms: _462  and  _463
REMARK  195  A    between atoms: _466  and  _468
REMARK  196  A    between atoms: _468  and  _469
REMARK  197  A    between atoms: _468  and  _471
REMARK  198  A    between atoms: _471  and  _472
REMARK  199  A    between atoms: _475  and  _477
REMARK  200  A    between atoms: _477  and  _478
REMARK  201  A    between atoms: _477  and  _480
REMARK  202  A    between atoms: _480  and  _481
REMARK  203  A    between atoms: _486  and  _488
REMARK  204  A    between atoms: _488  and  _489
REMARK  205  A    between atoms: _488  and  _491
REMARK  206  A    between atoms: _491  and  _492
REMARK  207  A    between atoms: _498  and  _500
REMARK  208  A    between atoms: _500  and  _501
REMARK  209  A    between atoms: _500  and  _503
REMARK  210  A    between atoms: _503  and  _504
REMARK  211  A    between atoms: _507  and  _509
REMARK  212  A    between atoms: _509  and  _510
REMARK  213  A    between atoms: _509  and  _512
REMARK  214  A    between atoms: _512  and  _513
REMARK  215  A    between atoms: _519  and  _521
REMARK  216  A    between atoms: _521  and  _522
REMARK  217  A    between atoms: _521  and  _524
REMARK  218  A    between atoms: _524  and  _525
REMARK  219  A    between atoms: _528  and  _530
REMARK  220  A    between atoms: _530  and  _531
REMARK  221  A    between atoms: _530  and  _533
REMARK  222  A    between atoms: _533  and  _534
REMARK  223  A    between atoms: _537  and  _539
REMARK  224  A    between atoms: _539  and  _540
REMARK  225  A    between atoms: _539  and  _542
REMARK  226  A    between atoms: _545  and  _547
REMARK  227  A    between atoms: _547  and  _548
REMARK  228  A    between atoms: _547  and  _550
REMARK  229  A    between atoms: _550  and  _551
REMARK  230  A    between atoms: _554  and  _556
REMARK  231  A    between atoms: _556  and  _557
REMARK  232  A    between atoms: _556  and  _559
REMARK  233  A    between atoms: _559  and  _560
REMARK  234  A    between atoms: _567  and  _568
REMARK  235  A    between atoms: _573  and  _575
REMARK  236  A    between atoms: _575  and  _576
REMARK  237  A    between atoms: _575  and  _578
REMARK  238  A    between atoms: _578  and  _579
REMARK  239  A    between atoms: _579  and  _580
REMARK  240  A    between atoms: _582  and  _584
REMARK  241  A    between atoms: _584  and  _585
REMARK  242  A    between atoms: _584  and  _587
REMARK  243  A    between atoms: _587  and  _588
REMARK  244  A    between atoms: _588  and  _589
REMARK  245  A    between atoms: _591  and  _593
REMARK  246  A    between atoms: _593  and  _594
REMARK  247  A    between atoms: _597  and  _599
REMARK  248  A    between atoms: _599  and  _600
REMARK  249  A    between atoms: _599  and  _602
REMARK  250  A    between atoms: _602  and  _603
REMARK  251  A    between atoms: _603  and  _604
REMARK  252  A    between atoms: _607  and  _609
REMARK  253  A    between atoms: _609  and  _610
REMARK  254  A    between atoms: _609  and  _612
REMARK  255  A    between atoms: _612  and  _613
REMARK  256  A    between atoms: _616  and  _618
REMARK  257  A    between atoms: _618  and  _619
REMARK  258  A    between atoms: _618  and  _621
REMARK  259  A    between atoms: _621  and  _622
REMARK  260  A    between atoms: _625  and  _627
REMARK  261  A    between atoms: _627  and  _628
REMARK  262  A    between atoms: _627  and  _630
REMARK  263  A    between atoms: _630  and  _631
REMARK  264  A    between atoms: _633  and  _635
REMARK  265  A    between atoms: _635  and  _636
REMARK  266  A    between atoms: _635  and  _638
REMARK  267  A    between atoms: _641  and  _643
REMARK  268  A    between atoms: _643  and  _644
REMARK  269  A    between atoms: _643  and  _646
REMARK  270  A    between atoms: _646  and  _647
REMARK  271  A    between atoms: _647  and  _648
REMARK  272  A    between atoms: _653  and  _655
REMARK  273  A    between atoms: _655  and  _656
REMARK  274  A    between atoms: _655  and  _658
REMARK  275  A    between atoms: _662  and  _663
REMARK  276  A    between atoms: _668  and  _670
REMARK  277  A    between atoms: _670  and  _671
REMARK  278  A    between atoms: _670  and  _673
REMARK  279  A    between atoms: _673  and  _674
REMARK                            x       y       z     vdW  Elec       q    Type
REMARK                         _______ _______ _______ _____ _____    ______ ____
ROOT
ATOM      1  CB  PHE A   1      22.292   3.521  -4.989  0.00  0.00    +0.051 C 
ENDROOT
BRANCH   1   2
ATOM      2  CG  PHE A   1      23.617   2.944  -4.568  0.00  0.00    -0.020 A 
ATOM      3  CD2 PHE A   1      23.683   1.648  -4.050  0.00  0.00    -0.004 A 
ATOM      4  CE2 PHE A   1      24.891   1.115  -3.605  0.00  0.00    -0.000 A 
ATOM      5  CZ  PHE A   1      26.054   1.882  -3.678  0.00  0.00    -0.000 A 
ATOM      6  CE1 PHE A   1      25.995   3.174  -4.196  0.00  0.00    -0.000 A 
ATOM      7  CD1 PHE A   1      24.780   3.696  -4.637  0.00  0.00    -0.004 A 
ENDBRANCH   1   2
BRANCH   1   8
ATOM      8  CA  PHE A   1      22.373   4.512  -6.151  0.00  0.00    +0.137 C 
BRANCH   8   9
ATOM      9  N   PHE A   1      22.605   5.858  -5.639  0.00  0.00    -0.239 NA
ATOM     10  H   PHE A   1      22.144   6.148  -4.753  0.00  0.00    +0.142 HD
ENDBRANCH   8   9
BRANCH   8  11
ATOM     11  C   PHE A   1      21.105   4.361  -6.989  0.00  0.00    +0.224 C 
ATOM     12  O   PHE A   1      20.012   4.714  -6.542  0.00  0.00    -0.287 OA
ENDBRANCH   8  11
ENDBRANCH   1   8
TORSDOF 4
REMARK  Name = ../refined-set-2016/1z95/1z95_pocket.pdb
REMARK  279 active torsions:
REMARK  status: ('A' for Active; 'I' for Inactive)
REMARK    1  A    between atoms: _1  and  _3
REMARK    2  A    between atoms: _3  and  _4
REMARK    3  A    between atoms: _3  and  _6
REMARK    4  A    between atoms: _9  and  _11
REMARK    5  A    between atoms: _11  and  _12
REMARK    6  A    between atoms: _15  and  _17
REMARK    7  A    between atoms: _17  and  _18
REMARK    8  A    between atoms: _17  and  _20
REMARK    9  A    between atoms: _20  and  _21
REMARK   10  A    between atoms: _27  and  _29
REMARK   11  A    between atoms: _29  and  _30
REMARK   12  A    between atoms: _29  and  _32
REMARK   13  A    between atoms: _32  and  _33
REMARK   14  A    between atoms: _36  and  _38
REMARK   15  A    between atoms: _38  and  _39
REMARK   16  A    between atoms: _38  and  _41
REMARK   17  A    between atoms: _41  and  _42
REMARK   18  A    between atoms: _45  and  _47
REMARK   19  A    between atoms: _47  and  _48
REMARK   20  A    between atoms: _47  and  _50
REMARK   21  A    between atoms: _50  and  _51
REMARK   22  A    between atoms: _53  and  _55
REMARK   23  A    between atoms: _55  and  _56
REMARK   24  A    between atoms: _55  and  _58
REMARK   25  A    between atoms: _58  and  _59
REMARK   26  A    between atoms: _61  and  _63
REMARK   27  A    between atoms: _63  and  _64
REMARK   28  A    between atoms: _63  and  _66
REMARK   29  A    between atoms: _66  and  _67
REMARK   30  A    between atoms: _70  and  _72
REMARK   31  A    between atoms: _72  and  _73
REMARK   32  A    between atoms: _72  and  _75
REMARK   33  A    between atoms: _75  and  _76
REMARK   34  A    between atoms: _81  and  _83
REMARK   35  A    between atoms: _83  and  _84
REMARK   36  A    between atoms: _83  and  _86
REMARK   37  A    between atoms: _86  and  _87
REMARK   38  A    between atoms: _87  and  _88
REMARK   39  A    between atoms: _91  and  _93
REMARK   40  A    between atoms: _93  and  _94
REMARK   41  A    between atoms: _93  and  _96
REMARK   42  A    between atoms: _96  and  _97
REMARK   43  A    between atoms: _100  and  _102
REMARK   44  A    between atoms: _102  and  _103
REMARK   45  A    between atoms: _105  and  _107
REMARK   46  A    between atoms: _107  and  _108
REMARK   47  A    between atoms: _107  and  _110
REMARK   48  A    between atoms: _110  and  _111
REMARK   49  A    between atoms: _111  and  _112
REMARK   50  A    between atoms: _115  and  _117
REMARK   51  A    between atoms: _117  and  _118
REMARK   52  A    between atoms: _117  and  _120
REMARK   53  A    between atoms: _120  and  _121
REMARK   54  A    between atoms: _121  and  _122
REMARK   55  A    between atoms: _122  and  _123
REMARK   56  A    between atoms: _132  and  _134
REMARK   57  A    between atoms: _134  and  _135
REMARK   58  A    between atoms: _134  and  _137
REMARK   59  A    between atoms: _137  and  _138
REMARK   60  A    between atoms: _138  and  _139
REMARK   61  A    between atoms: _144  and  _146
REMARK   62  A    between atoms: _146  and  _147
REMARK   63  A    between atoms: _146  and  _149
REMARK   64  A    between atoms: _149  and  _150
REMARK   65  A    between atoms: _153  and  _155
REMARK   66  A    between atoms: _155  and  _156
REMARK   67  A    between atoms: _155  and  _158
REMARK   68  A    between atoms: _158  and  _159
REMARK   69  A    between atoms: _162  and  _164
REMARK   70  A    between atoms: _164  and  _165
REMARK   71  A    between atoms: _164  and  _167
REMARK   72  A    between atoms: _167  and  _168
REMARK   73  A    between atoms: _168  and  _169
REMARK   74  A    between atoms: _174  and  _176
REMARK   75  A    between atoms: _176  and  _177
REMARK   76  A    between atoms: _176  and  _179
REMARK   77  A    between atoms: _179  and  _180
REMARK   78  A    between atoms: _185  and  _186
REMARK   79  A    between atoms: _188  and  _190
REMARK   80  A    between atoms: _190  and  _191
REMARK   81  A    between atoms: _190  and  _193
REMARK   82  A    between atoms: _193  and  _194
REMARK   83  A    between atoms: _196  and  _198
REMARK   84  A    between atoms: _198  and  _199
REMARK   85  A    between atoms: _198  and  _201
REMARK   86  A    between atoms: _201  and  _202
REMARK   87  A    between atoms: _205  and  _207
REMARK   88  A    between atoms: _207  and  _208
REMARK   89  A    between atoms: _207  and  _210
REMARK   90  A    between atoms: _210  and  _211
REMARK   91  A    between atoms: _211  and  _212
REMARK   92  A    between atoms: _214  and  _216
REMARK   93  A    between atoms: _216  and  _217
REMARK   94  A    between atoms: _219  and  _221
REMARK   95  A    between atoms: _221  and  _222
REMARK   96  A    between atoms: _221  and  _224
REMARK   97  A    between atoms: _224  and  _225
REMARK   98  A    between atoms: _228  and  _230
REMARK   99  A    between atoms: _230  and  _231
REMARK  100  A    between atoms: _230  and  _233
REMARK  101  A    between atoms: _233  and  _234
REMARK  102  A    between atoms: _234  and  _235
REMARK  103  A    between atoms: _237  and  _239
REMARK  104  A    between atoms: _239  and  _240
REMARK  105  A    between atoms: _239  and  _242
REMARK  106  A    between atoms: _245  and  _247
REMARK  107  A    between atoms: _247  and  _248
REMARK  108  A    between atoms: _247  and  _250
REMARK  109  A    between atoms: _250  and  _251
REMARK  110  A    between atoms: _257  and  _259
REMARK  111  A    between atoms: _259  and  _260
REMARK  112  A    between atoms: _263  and  _265
REMARK  113  A    between atoms: _265  and  _266
REMARK  114  A    between atoms: _265  and  _268
REMARK  115  A    between atoms: _268  and  _269
REMARK  116  A    between atoms: _269  and  _270
REMARK  117  A    between atoms: _272  and  _274
REMARK  118  A    between atoms: _274  and  _275
REMARK  119  A    between atoms: _277  and  _279
REMARK  120  A    between atoms: _279  and  _280
REMARK  121  A    between atoms: _279  and  _282
REMARK  122  A    between atoms: _282  and  _283
REMARK  123  A    between atoms: _293  and  _295
REMARK  124  A    between atoms: _295  and  _296
REMARK  125  A    between atoms: _295  and  _298
REMARK  126  A    between atoms: _298  and  _299
REMARK  127  A    between atoms: _299  and  _300
REMARK  128  A    between atoms: _300  and  _301
REMARK  129  A    between atoms: _310  and  _312
REMARK  130  A    between atoms: _312  and  _313
REMARK  131  A    between atoms: _312  and  _315
REMARK  132  A    between atoms: _315  and  _316
REMARK  133  A    between atoms: _318  and  _320
REMARK  134  A    between atoms: _320  and  _321
REMARK  135  A    between atoms: _320  and  _323
REMARK  136  A    between atoms: _323  and  _324
REMARK  137  A    between atoms: _327  and  _329
REMARK  138  A    between atoms: _329  and  _330
REMARK  139  A    between atoms: _329  and  _332
REMARK  140  A    between atoms: _332  and  _333
REMARK  141  A    between atoms: _338  and  _339
REMARK  142  A    between atoms: _341  and  _343
REMARK  143  A    between atoms: _343  and  _344
REMARK  144  A    between atoms: _343  and  _346
REMARK  145  A    between atoms: _346  and  _347
REMARK  146  A    between atoms: _353  and  _355
REMARK  147  A    between atoms: _355  and  _356
REMARK  148  A    between atoms: _359  and  _361
REMARK  149  A    between atoms: _361  and  _362
REMARK  150  A    between atoms: _361  and  _364
REMARK  151  A    between atoms: _364  and  _365
REMARK  152  A    between atoms: _368  and  _370
REMARK  153  A    between atoms: _370  and  _371
REMARK  154  A    between atoms: _370  and  _373
REMARK  155  A    between atoms: _373  and  _374
REMARK  156  A    between atoms: _380  and  _382
REMARK  157  A    between atoms: _382  and  _383
REMARK  158  A    between atoms: _382  and  _385
REMARK  159  A    between atoms: _385  and  _386
REMARK  160  A    between atoms: _388  and  _390
REMARK  161  A    between atoms: _390  and  _391
REMARK  162  A    between atoms: _390  and  _393
REMARK  163  A    between atoms: _393  and  _394
REMARK  164  A    between atoms: _394  and  _395
REMARK  165  A    between atoms: _397  and  _399
REMARK  166  A    between atoms: _399  and  _400
REMARK  167  A    between atoms: _399  and  _402
REMARK  168  A    between atoms: _402  and  _403
REMARK  169  A    between atoms: _403  and  _404
REMARK  170  A    between atoms: _409  and  _411
REMARK  171  A    between atoms: _411  and  _412
REMARK  172  A    between atoms: _411  and  _414
REMARK  173  A    between atoms: _416  and  _418
REMARK  174  A    between atoms: _418  and  _419
REMARK  175  A    between atoms: _418  and  _421
REMARK  176  A    between atoms: _421  and  _422
REMARK  177  A    between atoms: _422  and  _423
REMARK  178  A    between atoms: _425  and  _427
REMARK  179  A    between atoms: _427  and  _428
REMARK  180  A    between atoms: _427  and  _430
REMARK  181  A    between atoms: _430  and  _431
REMARK  182  A    between atoms: _434  and  _436
REMARK  183  A    between atoms: _436  and  _437
REMARK  184  A    between atoms: _436  and  _439
REMARK  185  A    between atoms: _439  and  _440
REMARK  186  A    between atoms: _443  and  _445
REMARK  187  A    between atoms: _445  and  _446
REMARK  188  A    between atoms: _445  and  _448
REMARK  189  A    between atoms: _451  and  _453
REMARK  190  A    between atoms: _453  and  _454
REMARK  191  A    between atoms: _453  and  _456
REMARK  192  A    between atoms: _456  and  _457
REMARK  193  A    between atoms: _460  and  _462
REMARK  194  A    between atoms: _462  and  _463
REMARK  195  A    between atoms: _466  and  _468
REMARK  196  A    between atoms: _468  and  _469
REMARK  197  A    between atoms: _468  and  _471
REMARK  198  A    between atoms: _471  and  _472
REMARK  199  A    between atoms: _475  and  _477
REMARK  200  A    between atoms: _477  and  _478
REMARK  201  A    between atoms: _477  and  _480
REMARK  202  A    between atoms: _480  and  _481
REMARK  203  A    between atoms: _486  and  _488
REMARK  204  A    between atoms: _488  and  _489
REMARK  205  A    between atoms: _488  and  _491
REMARK  206  A    between atoms: _491  and  _492
REMARK  207  A    between atoms: _498  and  _500
REMARK  208  A    between atoms: _500  and  _501
REMARK  209  A    between atoms: _500  and  _503
REMARK  210  A    between atoms: _503  and  _504
REMARK  211  A    between atoms: _507  and  _509
REMARK  212  A    between atoms: _509  and  _510
REMARK  213  A    between atoms: _509  and  _512
REMARK  214  A    between atoms: _512  and  _513
REMARK  215  A    between atoms: _519  and  _521
REMARK  216  A    between atoms: _521  and  _522
REMARK  217  A    between atoms: _521  and  _524
REMARK  218  A    between atoms: _524  and  _525
REMARK  219  A    between atoms: _528  and  _530
REMARK  220  A    between atoms: _530  and  _531
REMARK  221  A    between atoms: _530  and  _533
REMARK  222  A    between atoms: _533  and  _534
REMARK  223  A    between atoms: _537  and  _539
REMARK  224  A    between atoms: _539  and  _540
REMARK  225  A    between atoms: _539  and  _542
REMARK  226  A    between atoms: _545  and  _547
REMARK  227  A    between atoms: _547  and  _548
REMARK  228  A    between atoms: _547  and  _550
REMARK  229  A    between atoms: _550  and  _551
REMARK  230  A    between atoms: _554  and  _556
REMARK  231  A    between atoms: _556  and  _557
REMARK  232  A    between atoms: _556  and  _559
REMARK  233  A    between atoms: _559  and  _560
REMARK  234  A    between atoms: _567  and  _568
REMARK  235  A    between atoms: _573  and  _575
REMARK  236  A    between atoms: _575  and  _576
REMARK  237  A    between atoms: _575  and  _578
REMARK  238  A    between atoms: _578  and  _579
REMARK  239  A    between atoms: _579  and  _580
REMARK  240  A    between atoms: _582  and  _584
REMARK  241  A    between atoms: _584  and  _585
REMARK  242  A    between atoms: _584  and  _587
REMARK  243  A    between atoms: _587  and  _588
REMARK  244  A    between atoms: _588  and  _589
REMARK  245  A    between atoms: _591  and  _593
REMARK  246  A    between atoms: _593  and  _594
REMARK  247  A    between atoms: _597  and  _599
REMARK  248  A    between atoms: _599  and  _600
REMARK  249  A    between atoms: _599  and  _602
REMARK  250  A    between atoms: _602  and  _603
REMARK  251  A    between atoms: _603  and  _604
REMARK  252  A    between atoms: _607  and  _609
REMARK  253  A    between atoms: _609  and  _610
REMARK  254  A    between atoms: _609  and  _612
REMARK  255  A    between atoms: _612  and  _613
REMARK  256  A    between atoms: _616  and  _618
REMARK  257  A    between atoms: _618  and  _619
REMARK  258  A    between atoms: _618  and  _621
REMARK  259  A    between atoms: _621  and  _622
REMARK  260  A    between atoms: _625  and  _627
REMARK  261  A    between atoms: _627  and  _628
REMARK  262  A    between atoms: _627  and  _630
REMARK  263  A    between atoms: _630  and  _631
REMARK  264  A    between atoms: _633  and  _635
REMARK  265  A    between atoms: _635  and  _636
REMARK  266  A    between atoms: _635  and  _638
REMARK  267  A    between atoms: _641  and  _643
REMARK  268  A    between atoms: _643  and  _644
REMARK  269  A    between atoms: _643  and  _646
REMARK  270  A    between atoms: _646  and  _647
REMARK  271  A    between atoms: _647  and  _648
REMARK  272  A    between atoms: _653  and  _655
REMARK  273  A    between atoms: _655  and  _656
REMARK  274  A    between atoms: _655  and  _658
REMARK  275  A    between atoms: _662  and  _663
REMARK  276  A    between atoms: _668  and  _670
REMARK  277  A    between atoms: _670  and  _671
REMARK  278  A    between atoms: _670  and  _673
REMARK  279  A    between atoms: _673  and  _674
REMARK                            x       y       z     vdW  Elec       q    Type
REMARK                         _______ _______ _______ _____ _____    ______ ____
ROOT
ATOM      1  CA  SER A   1      26.890  -3.441  -4.749  0.00  0.00    +0.163 C 
ENDROOT
BRANCH   1   2
ATOM      2  N   SER A   1      26.380  -3.558  -6.113  0.00  0.00    -0.237 NA
ATOM      3  H   SER A   1      25.462  -3.131  -6.349  0.00  0.00    +0.142 HD
ENDBRANCH   1   2
BRANCH   1   4
ATOM      4  C   SER A   1      26.617  -4.714  -3.945  0.00  0.00    +0.227 C 
ATOM      5  O   SER A   1      27.112  -4.866  -2.826  0.00  0.00    -0.287 OA
ENDBRANCH   1   4
BRANCH   1   6
ATOM      6  CB  SER A   1      26.231  -2.259  -4.036  0.00  0.00    +0.162 C 
BRANCH   6   7
ATOM      7  OG  SER A   1      24.867  -2.541  -3.756  0.00  0.00    -0.380 OA
ATOM      8  H   SER A   1      24.386  -2.713  -4.604  0.00  0.00    +0.211 HD
ENDBRANCH   6   7
ENDBRANCH   1   6
TORSDOF 4
REMARK  Name = ../refined-set-2016/1z95/1z95_pocket.pdb
REMARK  279 active torsions:
REMARK  status: ('A' for Active; 'I' for Inactive)
REMARK    1  A    between atoms: _1  and  _3
REMARK    2  A    between atoms: _3  and  _4
REMARK    3  A    between atoms: _3  and  _6
REMARK    4  A    between atoms: _9  and  _11
REMARK    5  A    between atoms: _11  and  _12
REMARK    6  A    between atoms: _15  and  _17
REMARK    7  A    between atoms: _17  and  _18
REMARK    8  A    between atoms: _17  and  _20
REMARK    9  A    between atoms: _20  and  _21
REMARK   10  A    between atoms: _27  and  _29
REMARK   11  A    between atoms: _29  and  _30
REMARK   12  A    between atoms: _29  and  _32
REMARK   13  A    between atoms: _32  and  _33
REMARK   14  A    between atoms: _36  and  _38
REMARK   15  A    between atoms: _38  and  _39
REMARK   16  A    between atoms: _38  and  _41
REMARK   17  A    between atoms: _41  and  _42
REMARK   18  A    between atoms: _45  and  _47
REMARK   19  A    between atoms: _47  and  _48
REMARK   20  A    between atoms: _47  and  _50
REMARK   21  A    between atoms: _50  and  _51
REMARK   22  A    between atoms: _53  and  _55
REMARK   23  A    between atoms: _55  and  _56
REMARK   24  A    between atoms: _55  and  _58
REMARK   25  A    between atoms: _58  and  _59
REMARK   26  A    between atoms: _61  and  _63
REMARK   27  A    between atoms: _63  and  _64
REMARK   28  A    between atoms: _63  and  _66
REMARK   29  A    between atoms: _66  and  _67
REMARK   30  A    between atoms: _70  and  _72
REMARK   31  A    between atoms: _72  and  _73
REMARK   32  A    between atoms: _72  and  _75
REMARK   33  A    between atoms: _75  and  _76
REMARK   34  A    between atoms: _81  and  _83
REMARK   35  A    between atoms: _83  and  _84
REMARK   36  A    between atoms: _83  and  _86
REMARK   37  A    between atoms: _86  and  _87
REMARK   38  A    between atoms: _87  and  _88
REMARK   39  A    between atoms: _91  and  _93
REMARK   40  A    between atoms: _93  and  _94
REMARK   41  A    between atoms: _93  and  _96
REMARK   42  A    between atoms: _96  and  _97
REMARK   43  A    between atoms: _100  and  _102
REMARK   44  A    between atoms: _102  and  _103
REMARK   45  A    between atoms: _105  and  _107
REMARK   46  A    between atoms: _107  and  _108
REMARK   47  A    between atoms: _107  and  _110
REMARK   48  A    between atoms: _110  and  _111
REMARK   49  A    between atoms: _111  and  _112
REMARK   50  A    between atoms: _115  and  _117
REMARK   51  A    between atoms: _117  and  _118
REMARK   52  A    between atoms: _117  and  _120
REMARK   53  A    between atoms: _120  and  _121
REMARK   54  A    between atoms: _121  and  _122
REMARK   55  A    between atoms: _122  and  _123
REMARK   56  A    between atoms: _132  and  _134
REMARK   57  A    between atoms: _134  and  _135
REMARK   58  A    between atoms: _134  and  _137
REMARK   59  A    between atoms: _137  and  _138
REMARK   60  A    between atoms: _138  and  _139
REMARK   61  A    between atoms: _144  and  _146
REMARK   62  A    between atoms: _146  and  _147
REMARK   63  A    between atoms: _146  and  _149
REMARK   64  A    between atoms: _149  and  _150
REMARK   65  A    between atoms: _153  and  _155
REMARK   66  A    between atoms: _155  and  _156
REMARK   67  A    between atoms: _155  and  _158
REMARK   68  A    between atoms: _158  and  _159
REMARK   69  A    between atoms: _162  and  _164
REMARK   70  A    between atoms: _164  and  _165
REMARK   71  A    between atoms: _164  and  _167
REMARK   72  A    between atoms: _167  and  _168
REMARK   73  A    between atoms: _168  and  _169
REMARK   74  A    between atoms: _174  and  _176
REMARK   75  A    between atoms: _176  and  _177
REMARK   76  A    between atoms: _176  and  _179
REMARK   77  A    between atoms: _179  and  _180
REMARK   78  A    between atoms: _185  and  _186
REMARK   79  A    between atoms: _188  and  _190
REMARK   80  A    between atoms: _190  and  _191
REMARK   81  A    between atoms: _190  and  _193
REMARK   82  A    between atoms: _193  and  _194
REMARK   83  A    between atoms: _196  and  _198
REMARK   84  A    between atoms: _198  and  _199
REMARK   85  A    between atoms: _198  and  _201
REMARK   86  A    between atoms: _201  and  _202
REMARK   87  A    between atoms: _205  and  _207
REMARK   88  A    between atoms: _207  and  _208
REMARK   89  A    between atoms: _207  and  _210
REMARK   90  A    between atoms: _210  and  _211
REMARK   91  A    between atoms: _211  and  _212
REMARK   92  A    between atoms: _214  and  _216
REMARK   93  A    between atoms: _216  and  _217
REMARK   94  A    between atoms: _219  and  _221
REMARK   95  A    between atoms: _221  and  _222
REMARK   96  A    between atoms: _221  and  _224
REMARK   97  A    between atoms: _224  and  _225
REMARK   98  A    between atoms: _228  and  _230
REMARK   99  A    between atoms: _230  and  _231
REMARK  100  A    between atoms: _230  and  _233
REMARK  101  A    between atoms: _233  and  _234
REMARK  102  A    between atoms: _234  and  _235
REMARK  103  A    between atoms: _237  and  _239
REMARK  104  A    between atoms: _239  and  _240
REMARK  105  A    between atoms: _239  and  _242
REMARK  106  A    between atoms: _245  and  _247
REMARK  107  A    between atoms: _247  and  _248
REMARK  108  A    between atoms: _247  and  _250
REMARK  109  A    between atoms: _250  and  _251
REMARK  110  A    between atoms: _257  and  _259
REMARK  111  A    between atoms: _259  and  _260
REMARK  112  A    between atoms: _263  and  _265
REMARK  113  A    between atoms: _265  and  _266
REMARK  114  A    between atoms: _265  and  _268
REMARK  115  A    between atoms: _268  and  _269
REMARK  116  A    between atoms: _269  and  _270
REMARK  117  A    between atoms: _272  and  _274
REMARK  118  A    between atoms: _274  and  _275
REMARK  119  A    between atoms: _277  and  _279
REMARK  120  A    between atoms: _279  and  _280
REMARK  121  A    between atoms: _279  and  _282
REMARK  122  A    between atoms: _282  and  _283
REMARK  123  A    between atoms: _293  and  _295
REMARK  124  A    between atoms: _295  and  _296
REMARK  125  A    between atoms: _295  and  _298
REMARK  126  A    between atoms: _298  and  _299
REMARK  127  A    between atoms: _299  and  _300
REMARK  128  A    between atoms: _300  and  _301
REMARK  129  A    between atoms: _310  and  _312
REMARK  130  A    between atoms: _312  and  _313
REMARK  131  A    between atoms: _312  and  _315
REMARK  132  A    between atoms: _315  and  _316
REMARK  133  A    between atoms: _318  and  _320
REMARK  134  A    between atoms: _320  and  _321
REMARK  135  A    between atoms: _320  and  _323
REMARK  136  A    between atoms: _323  and  _324
REMARK  137  A    between atoms: _327  and  _329
REMARK  138  A    between atoms: _329  and  _330
REMARK  139  A    between atoms: _329  and  _332
REMARK  140  A    between atoms: _332  and  _333
REMARK  141  A    between atoms: _338  and  _339
REMARK  142  A    between atoms: _341  and  _343
REMARK  143  A    between atoms: _343  and  _344
REMARK  144  A    between atoms: _343  and  _346
REMARK  145  A    between atoms: _346  and  _347
REMARK  146  A    between atoms: _353  and  _355
REMARK  147  A    between atoms: _355  and  _356
REMARK  148  A    between atoms: _359  and  _361
REMARK  149  A    between atoms: _361  and  _362
REMARK  150  A    between atoms: _361  and  _364
REMARK  151  A    between atoms: _364  and  _365
REMARK  152  A    between atoms: _368  and  _370
REMARK  153  A    between atoms: _370  and  _371
REMARK  154  A    between atoms: _370  and  _373
REMARK  155  A    between atoms: _373  and  _374
REMARK  156  A    between atoms: _380  and  _382
REMARK  157  A    between atoms: _382  and  _383
REMARK  158  A    between atoms: _382  and  _385
REMARK  159  A    between atoms: _385  and  _386
REMARK  160  A    between atoms: _388  and  _390
REMARK  161  A    between atoms: _390  and  _391
REMARK  162  A    between atoms: _390  and  _393
REMARK  163  A    between atoms: _393  and  _394
REMARK  164  A    between atoms: _394  and  _395
REMARK  165  A    between atoms: _397  and  _399
REMARK  166  A    between atoms: _399  and  _400
REMARK  167  A    between atoms: _399  and  _402
REMARK  168  A    between atoms: _402  and  _403
REMARK  169  A    between atoms: _403  and  _404
REMARK  170  A    between atoms: _409  and  _411
REMARK  171  A    between atoms: _411  and  _412
REMARK  172  A    between atoms: _411  and  _414
REMARK  173  A    between atoms: _416  and  _418
REMARK  174  A    between atoms: _418  and  _419
REMARK  175  A    between atoms: _418  and  _421
REMARK  176  A    between atoms: _421  and  _422
REMARK  177  A    between atoms: _422  and  _423
REMARK  178  A    between atoms: _425  and  _427
REMARK  179  A    between atoms: _427  and  _428
REMARK  180  A    between atoms: _427  and  _430
REMARK  181  A    between atoms: _430  and  _431
REMARK  182  A    between atoms: _434  and  _436
REMARK  183  A    between atoms: _436  and  _437
REMARK  184  A    between atoms: _436  and  _439
REMARK  185  A    between atoms: _439  and  _440
REMARK  186  A    between atoms: _443  and  _445
REMARK  187  A    between atoms: _445  and  _446
REMARK  188  A    between atoms: _445  and  _448
REMARK  189  A    between atoms: _451  and  _453
REMARK  190  A    between atoms: _453  and  _454
REMARK  191  A    between atoms: _453  and  _456
REMARK  192  A    between atoms: _456  and  _457
REMARK  193  A    between atoms: _460  and  _462
REMARK  194  A    between atoms: _462  and  _463
REMARK  195  A    between atoms: _466  and  _468
REMARK  196  A    between atoms: _468  and  _469
REMARK  197  A    between atoms: _468  and  _471
REMARK  198  A    between atoms: _471  and  _472
REMARK  199  A    between atoms: _475  and  _477
REMARK  200  A    between atoms: _477  and  _478
REMARK  201  A    between atoms: _477  and  _480
REMARK  202  A    between atoms: _480  and  _481
REMARK  203  A    between atoms: _486  and  _488
REMARK  204  A    between atoms: _488  and  _489
REMARK  205  A    between atoms: _488  and  _491
REMARK  206  A    between atoms: _491  and  _492
REMARK  207  A    between atoms: _498  and  _500
REMARK  208  A    between atoms: _500  and  _501
REMARK  209  A    between atoms: _500  and  _503
REMARK  210  A    between atoms: _503  and  _504
REMARK  211  A    between atoms: _507  and  _509
REMARK  212  A    between atoms: _509  and  _510
REMARK  213  A    between atoms: _509  and  _512
REMARK  214  A    between atoms: _512  and  _513
REMARK  215  A    between atoms: _519  and  _521
REMARK  216  A    between atoms: _521  and  _522
REMARK  217  A    between atoms: _521  and  _524
REMARK  218  A    between atoms: _524  and  _525
REMARK  219  A    between atoms: _528  and  _530
REMARK  220  A    between atoms: _530  and  _531
REMARK  221  A    between atoms: _530  and  _533
REMARK  222  A    between atoms: _533  and  _534
REMARK  223  A    between atoms: _537  and  _539
REMARK  224  A    between atoms: _539  and  _540
REMARK  225  A    between atoms: _539  and  _542
REMARK  226  A    between atoms: _545  and  _547
REMARK  227  A    between atoms: _547  and  _548
REMARK  228  A    between atoms: _547  and  _550
REMARK  229  A    between atoms: _550  and  _551
REMARK  230  A    between atoms: _554  and  _556
REMARK  231  A    between atoms: _556  and  _557
REMARK  232  A    between atoms: _556  and  _559
REMARK  233  A    between atoms: _559  and  _560
REMARK  234  A    between atoms: _567  and  _568
REMARK  235  A    between atoms: _573  and  _575
REMARK  236  A    between atoms: _575  and  _576
REMARK  237  A    between atoms: _575  and  _578
REMARK  238  A    between atoms: _578  and  _579
REMARK  239  A    between atoms: _579  and  _580
REMARK  240  A    between atoms: _582  and  _584
REMARK  241  A    between atoms: _584  and  _585
REMARK  242  A    between atoms: _584  and  _587
REMARK  243  A    between atoms: _587  and  _588
REMARK  244  A    between atoms: _588  and  _589
REMARK  245  A    between atoms: _591  and  _593
REMARK  246  A    between atoms: _593  and  _594
REMARK  247  A    between atoms: _597  and  _599
REMARK  248  A    between atoms: _599  and  _600
REMARK  249  A    between atoms: _599  and  _602
REMARK  250  A    between atoms: _602  and  _603
REMARK  251  A    between atoms: _603  and  _604
REMARK  252  A    between atoms: _607  and  _609
REMARK  253  A    between atoms: _609  and  _610
REMARK  254  A    between atoms: _609  and  _612
REMARK  255  A    between atoms: _612  and  _613
REMARK  256  A    between atoms: _616  and  _618
REMARK  257  A    between atoms: _618  and  _619
REMARK  258  A    between atoms: _618  and  _621
REMARK  259  A    between atoms: _621  and  _622
REMARK  260  A    between atoms: _625  and  _627
REMARK  261  A    between atoms: _627  and  _628
REMARK  262  A    between atoms: _627  and  _630
REMARK  263  A    between atoms: _630  and  _631
REMARK  264  A    between atoms: _633  and  _635
REMARK  265  A    between atoms: _635  and  _636
REMARK  266  A    between atoms: _635  and  _638
REMARK  267  A    between atoms: _641  and  _643
REMARK  268  A    between atoms: _643  and  _644
REMARK  269  A    between atoms: _643  and  _646
REMARK  270  A    between atoms: _646  and  _647
REMARK  271  A    between atoms: _647  and  _648
REMARK  272  A    between atoms: _653  and  _655
REMARK  273  A    between atoms: _655  and  _656
REMARK  274  A    between atoms: _655  and  _658
REMARK  275  A    between atoms: _662  and  _663
REMARK  276  A    between atoms: _668  and  _670
REMARK  277  A    between atoms: _670  and  _671
REMARK  278  A    between atoms: _670  and  _673
REMARK  279  A    between atoms: _673  and  _674
REMARK                            x       y       z     vdW  Elec       q    Type
REMARK                         _______ _______ _______ _____ _____    ______ ____
ROOT
ATOM      1  CA  MET A   1      23.284  -5.038  -1.314  0.00  0.00    +0.134 C 
ENDROOT
BRANCH   1   2
ATOM      2  N   MET A   1      24.061  -5.443  -2.486  0.00  0.00    -0.239 NA
ATOM      3  H   MET A   1      24.116  -4.791  -3.294  0.00  0.00    +0.142 HD
ENDBRANCH   1   2
BRANCH   1   4
ATOM      4  C   MET A   1      21.868  -4.713  -1.785  0.00  0.00    +0.224 C 
ATOM      5  O   MET A   1      21.168  -3.900  -1.173  0.00  0.00    -0.287 OA
ENDBRANCH   1   4
BRANCH   1   6
ATOM      6  CB  MET A   1      23.875  -3.769  -0.698  0.00  0.00    +0.037 C 
BRANCH   6   7
ATOM      7  CG  MET A   1      25.374  -3.801  -0.444  0.00  0.00    +0.059 C 
BRANCH   7   8
ATOM      8  SD  MET A   1      25.961  -2.161   0.056  0.00  0.00    -0.139 S 
ATOM      9  CE  MET A   1      25.172  -2.032   1.654  0.00  0.00    +0.069 C 
ENDBRANCH   7   8
ENDBRANCH   6   7
ENDBRANCH   1   6
TORSDOF 5
REMARK  Name = ../refined-set-2016/1z95/1z95_pocket.pdb
REMARK  279 active torsions:
REMARK  status: ('A' for Active; 'I' for Inactive)
REMARK    1  A    between atoms: _1  and  _3
REMARK    2  A    between atoms: _3  and  _4
REMARK    3  A    between atoms: _3  and  _6
REMARK    4  A    between atoms: _9  and  _11
REMARK    5  A    between atoms: _11  and  _12
REMARK    6  A    between atoms: _15  and  _17
REMARK    7  A    between atoms: _17  and  _18
REMARK    8  A    between atoms: _17  and  _20
REMARK    9  A    between atoms: _20  and  _21
REMARK   10  A    between atoms: _27  and  _29
REMARK   11  A    between atoms: _29  and  _30
REMARK   12  A    between atoms: _29  and  _32
REMARK   13  A    between atoms: _32  and  _33
REMARK   14  A    between atoms: _36  and  _38
REMARK   15  A    between atoms: _38  and  _39
REMARK   16  A    between atoms: _38  and  _41
REMARK   17  A    between atoms: _41  and  _42
REMARK   18  A    between atoms: _45  and  _47
REMARK   19  A    between atoms: _47  and  _48
REMARK   20  A    between atoms: _47  and  _50
REMARK   21  A    between atoms: _50  and  _51
REMARK   22  A    between atoms: _53  and  _55
REMARK   23  A    between atoms: _55  and  _56
REMARK   24  A    between atoms: _55  and  _58
REMARK   25  A    between atoms: _58  and  _59
REMARK   26  A    between atoms: _61  and  _63
REMARK   27  A    between atoms: _63  and  _64
REMARK   28  A    between atoms: _63  and  _66
REMARK   29  A    between atoms: _66  and  _67
REMARK   30  A    between atoms: _70  and  _72
REMARK   31  A    between atoms: _72  and  _73
REMARK   32  A    between atoms: _72  and  _75
REMARK   33  A    between atoms: _75  and  _76
REMARK   34  A    between atoms: _81  and  _83
REMARK   35  A    between atoms: _83  and  _84
REMARK   36  A    between atoms: _83  and  _86
REMARK   37  A    between atoms: _86  and  _87
REMARK   38  A    between atoms: _87  and  _88
REMARK   39  A    between atoms: _91  and  _93
REMARK   40  A    between atoms: _93  and  _94
REMARK   41  A    between atoms: _93  and  _96
REMARK   42  A    between atoms: _96  and  _97
REMARK   43  A    between atoms: _100  and  _102
REMARK   44  A    between atoms: _102  and  _103
REMARK   45  A    between atoms: _105  and  _107
REMARK   46  A    between atoms: _107  and  _108
REMARK   47  A    between atoms: _107  and  _110
REMARK   48  A    between atoms: _110  and  _111
REMARK   49  A    between atoms: _111  and  _112
REMARK   50  A    between atoms: _115  and  _117
REMARK   51  A    between atoms: _117  and  _118
REMARK   52  A    between atoms: _117  and  _120
REMARK   53  A    between atoms: _120  and  _121
REMARK   54  A    between atoms: _121  and  _122
REMARK   55  A    between atoms: _122  and  _123
REMARK   56  A    between atoms: _132  and  _134
REMARK   57  A    between atoms: _134  and  _135
REMARK   58  A    between atoms: _134  and  _137
REMARK   59  A    between atoms: _137  and  _138
REMARK   60  A    between atoms: _138  and  _139
REMARK   61  A    between atoms: _144  and  _146
REMARK   62  A    between atoms: _146  and  _147
REMARK   63  A    between atoms: _146  and  _149
REMARK   64  A    between atoms: _149  and  _150
REMARK   65  A    between atoms: _153  and  _155
REMARK   66  A    between atoms: _155  and  _156
REMARK   67  A    between atoms: _155  and  _158
REMARK   68  A    between atoms: _158  and  _159
REMARK   69  A    between atoms: _162  and  _164
REMARK   70  A    between atoms: _164  and  _165
REMARK   71  A    between atoms: _164  and  _167
REMARK   72  A    between atoms: _167  and  _168
REMARK   73  A    between atoms: _168  and  _169
REMARK   74  A    between atoms: _174  and  _176
REMARK   75  A    between atoms: _176  and  _177
REMARK   76  A    between atoms: _176  and  _179
REMARK   77  A    between atoms: _179  and  _180
REMARK   78  A    between atoms: _185  and  _186
REMARK   79  A    between atoms: _188  and  _190
REMARK   80  A    between atoms: _190  and  _191
REMARK   81  A    between atoms: _190  and  _193
REMARK   82  A    between atoms: _193  and  _194
REMARK   83  A    between atoms: _196  and  _198
REMARK   84  A    between atoms: _198  and  _199
REMARK   85  A    between atoms: _198  and  _201
REMARK   86  A    between atoms: _201  and  _202
REMARK   87  A    between atoms: _205  and  _207
REMARK   88  A    between atoms: _207  and  _208
REMARK   89  A    between atoms: _207  and  _210
REMARK   90  A    between atoms: _210  and  _211
REMARK   91  A    between atoms: _211  and  _212
REMARK   92  A    between atoms: _214  and  _216
REMARK   93  A    between atoms: _216  and  _217
REMARK   94  A    between atoms: _219  and  _221
REMARK   95  A    between atoms: _221  and  _222
REMARK   96  A    between atoms: _221  and  _224
REMARK   97  A    between atoms: _224  and  _225
REMARK   98  A    between atoms: _228  and  _230
REMARK   99  A    between atoms: _230  and  _231
REMARK  100  A    between atoms: _230  and  _233
REMARK  101  A    between atoms: _233  and  _234
REMARK  102  A    between atoms: _234  and  _235
REMARK  103  A    between atoms: _237  and  _239
REMARK  104  A    between atoms: _239  and  _240
REMARK  105  A    between atoms: _239  and  _242
REMARK  106  A    between atoms: _245  and  _247
REMARK  107  A    between atoms: _247  and  _248
REMARK  108  A    between atoms: _247  and  _250
REMARK  109  A    between atoms: _250  and  _251
REMARK  110  A    between atoms: _257  and  _259
REMARK  111  A    between atoms: _259  and  _260
REMARK  112  A    between atoms: _263  and  _265
REMARK  113  A    between atoms: _265  and  _266
REMARK  114  A    between atoms: _265  and  _268
REMARK  115  A    between atoms: _268  and  _269
REMARK  116  A    between atoms: _269  and  _270
REMARK  117  A    between atoms: _272  and  _274
REMARK  118  A    between atoms: _274  and  _275
REMARK  119  A    between atoms: _277  and  _279
REMARK  120  A    between atoms: _279  and  _280
REMARK  121  A    between atoms: _279  and  _282
REMARK  122  A    between atoms: _282  and  _283
REMARK  123  A    between atoms: _293  and  _295
REMARK  124  A    between atoms: _295  and  _296
REMARK  125  A    between atoms: _295  and  _298
REMARK  126  A    between atoms: _298  and  _299
REMARK  127  A    between atoms: _299  and  _300
REMARK  128  A    between atoms: _300  and  _301
REMARK  129  A    between atoms: _310  and  _312
REMARK  130  A    between atoms: _312  and  _313
REMARK  131  A    between atoms: _312  and  _315
REMARK  132  A    between atoms: _315  and  _316
REMARK  133  A    between atoms: _318  and  _320
REMARK  134  A    between atoms: _320  and  _321
REMARK  135  A    between atoms: _320  and  _323
REMARK  136  A    between atoms: _323  and  _324
REMARK  137  A    between atoms: _327  and  _329
REMARK  138  A    between atoms: _329  and  _330
REMARK  139  A    between atoms: _329  and  _332
REMARK  140  A    between atoms: _332  and  _333
REMARK  141  A    between atoms: _338  and  _339
REMARK  142  A    between atoms: _341  and  _343
REMARK  143  A    between atoms: _343  and  _344
REMARK  144  A    between atoms: _343  and  _346
REMARK  145  A    between atoms: _346  and  _347
REMARK  146  A    between atoms: _353  and  _355
REMARK  147  A    between atoms: _355  and  _356
REMARK  148  A    between atoms: _359  and  _361
REMARK  149  A    between atoms: _361  and  _362
REMARK  150  A    between atoms: _361  and  _364
REMARK  151  A    between atoms: _364  and  _365
REMARK  152  A    between atoms: _368  and  _370
REMARK  153  A    between atoms: _370  and  _371
REMARK  154  A    between atoms: _370  and  _373
REMARK  155  A    between atoms: _373  and  _374
REMARK  156  A    between atoms: _380  and  _382
REMARK  157  A    between atoms: _382  and  _383
REMARK  158  A    between atoms: _382  and  _385
REMARK  159  A    between atoms: _385  and  _386
REMARK  160  A    between atoms: _388  and  _390
REMARK  161  A    between atoms: _390  and  _391
REMARK  162  A    between atoms: _390  and  _393
REMARK  163  A    between atoms: _393  and  _394
REMARK  164  A    between atoms: _394  and  _395
REMARK  165  A    between atoms: _397  and  _399
REMARK  166  A    between atoms: _399  and  _400
REMARK  167  A    between atoms: _399  and  _402
REMARK  168  A    between atoms: _402  and  _403
REMARK  169  A    between atoms: _403  and  _404
REMARK  170  A    between atoms: _409  and  _411
REMARK  171  A    between atoms: _411  and  _412
REMARK  172  A    between atoms: _411  and  _414
REMARK  173  A    between atoms: _416  and  _418
REMARK  174  A    between atoms: _418  and  _419
REMARK  175  A    between atoms: _418  and  _421
REMARK  176  A    between atoms: _421  and  _422
REMARK  177  A    between atoms: _422  and  _423
REMARK  178  A    between atoms: _425  and  _427
REMARK  179  A    between atoms: _427  and  _428
REMARK  180  A    between atoms: _427  and  _430
REMARK  181  A    between atoms: _430  and  _431
REMARK  182  A    between atoms: _434  and  _436
REMARK  183  A    between atoms: _436  and  _437
REMARK  184  A    between atoms: _436  and  _439
REMARK  185  A    between atoms: _439  and  _440
REMARK  186  A    between atoms: _443  and  _445
REMARK  187  A    between atoms: _445  and  _446
REMARK  188  A    between atoms: _445  and  _448
REMARK  189  A    between atoms: _451  and  _453
REMARK  190  A    between atoms: _453  and  _454
REMARK  191  A    between atoms: _453  and  _456
REMARK  192  A    between atoms: _456  and  _457
REMARK  193  A    between atoms: _460  and  _462
REMARK  194  A    between atoms: _462  and  _463
REMARK  195  A    between atoms: _466  and  _468
REMARK  196  A    between atoms: _468  and  _469
REMARK  197  A    between atoms: _468  and  _471
REMARK  198  A    between atoms: _471  and  _472
REMARK  199  A    between atoms: _475  and  _477
REMARK  200  A    between atoms: _477  and  _478
REMARK  201  A    between atoms: _477  and  _480
REMARK  202  A    between atoms: _480  and  _481
REMARK  203  A    between atoms: _486  and  _488
REMARK  204  A    between atoms: _488  and  _489
REMARK  205  A    between atoms: _488  and  _491
REMARK  206  A    between atoms: _491  and  _492
REMARK  207  A    between atoms: _498  and  _500
REMARK  208  A    between atoms: _500  and  _501
REMARK  209  A    between atoms: _500  and  _503
REMARK  210  A    between atoms: _503  and  _504
REMARK  211  A    between atoms: _507  and  _509
REMARK  212  A    between atoms: _509  and  _510
REMARK  213  A    between atoms: _509  and  _512
REMARK  214  A    between atoms: _512  and  _513
REMARK  215  A    between atoms: _519  and  _521
REMARK  216  A    between atoms: _521  and  _522
REMARK  217  A    between atoms: _521  and  _524
REMARK  218  A    between atoms: _524  and  _525
REMARK  219  A    between atoms: _528  and  _530
REMARK  220  A    between atoms: _530  and  _531
REMARK  221  A    between atoms: _530  and  _533
REMARK  222  A    between atoms: _533  and  _534
REMARK  223  A    between atoms: _537  and  _539
REMARK  224  A    between atoms: _539  and  _540
REMARK  225  A    between atoms: _539  and  _542
REMARK  226  A    between atoms: _545  and  _547
REMARK  227  A    between atoms: _547  and  _548
REMARK  228  A    between atoms: _547  and  _550
REMARK  229  A    between atoms: _550  and  _551
REMARK  230  A    between atoms: _554  and  _556
REMARK  231  A    between atoms: _556  and  _557
REMARK  232  A    between atoms: _556  and  _559
REMARK  233  A    between atoms: _559  and  _560
REMARK  234  A    between atoms: _567  and  _568
REMARK  235  A    between atoms: _573  and  _575
REMARK  236  A    between atoms: _575  and  _576
REMARK  237  A    between atoms: _575  and  _578
REMARK  238  A    between atoms: _578  and  _579
REMARK  239  A    between atoms: _579  and  _580
REMARK  240  A    between atoms: _582  and  _584
REMARK  241  A    between atoms: _584  and  _585
REMARK  242  A    between atoms: _584  and  _587
REMARK  243  A    between atoms: _587  and  _588
REMARK  244  A    between atoms: _588  and  _589
REMARK  245  A    between atoms: _591  and  _593
REMARK  246  A    between atoms: _593  and  _594
REMARK  247  A    between atoms: _597  and  _599
REMARK  248  A    between atoms: _599  and  _600
REMARK  249  A    between atoms: _599  and  _602
REMARK  250  A    between atoms: _602  and  _603
REMARK  251  A    between atoms: _603  and  _604
REMARK  252  A    between atoms: _607  and  _609
REMARK  253  A    between atoms: _609  and  _610
REMARK  254  A    between atoms: _609  and  _612
REMARK  255  A    between atoms: _612  and  _613
REMARK  256  A    between atoms: _616  and  _618
REMARK  257  A    between atoms: _618  and  _619
REMARK  258  A    between atoms: _618  and  _621
REMARK  259  A    between atoms: _621  and  _622
REMARK  260  A    between atoms: _625  and  _627
REMARK  261  A    between atoms: _627  and  _628
REMARK  262  A    between atoms: _627  and  _630
REMARK  263  A    between atoms: _630  and  _631
REMARK  264  A    between atoms: _633  and  _635
REMARK  265  A    between atoms: _635  and  _636
REMARK  266  A    between atoms: _635  and  _638
REMARK  267  A    between atoms: _641  and  _643
REMARK  268  A    between atoms: _643  and  _644
REMARK  269  A    between atoms: _643  and  _646
REMARK  270  A    between atoms: _646  and  _647
REMARK  271  A    between atoms: _647  and  _648
REMARK  272  A    between atoms: _653  and  _655
REMARK  273  A    between atoms: _655  and  _656
REMARK  274  A    between atoms: _655  and  _658
REMARK  275  A    between atoms: _662  and  _663
REMARK  276  A    between atoms: _668  and  _670
REMARK  277  A    between atoms: _670  and  _671
REMARK  278  A    between atoms: _670  and  _673
REMARK  279  A    between atoms: _673  and  _674
REMARK                            x       y       z     vdW  Elec       q    Type
REMARK                         _______ _______ _______ _____ _____    ______ ____
ROOT
ATOM      1  CA  GLN A   1      19.036  -4.141   1.853  0.00  0.00    +0.145 C 
ENDROOT
BRANCH   1   2
ATOM      2  C   GLN A   1      18.621  -2.774   1.311  0.00  0.00    +0.238 C 
ATOM      3  O   GLN A   1      17.936  -2.012   1.991  0.00  0.00    -0.274 OA
ATOM      4  N   CYS A   2      19.036  -2.466   0.083  0.00  0.00    -0.298 N 
ATOM      5  H   CYS A   2      19.621  -3.145  -0.445  0.00  0.00    +0.150 HD
BRANCH   4   6
ATOM      6  CA  CYS A   2      18.682  -1.190  -0.532  0.00  0.00    +0.149 C 
BRANCH   6   7
ATOM      7  C   CYS A   2      17.173  -1.071  -0.705  0.00  0.00    +0.228 C 
ATOM      8  O   CYS A   2      16.616   0.022  -0.598  0.00  0.00    -0.286 OA
ENDBRANCH   6   7
BRANCH   6   9
ATOM      9  CB  CYS A   2      19.372  -1.028  -1.891  0.00  0.00    +0.096 C 
ATOM     10  SG  CYS A   2      21.147  -0.683  -1.778  0.00  0.00    -0.080 S 
ENDBRANCH   6   9
ENDBRANCH   4   6
ENDBRANCH   1   2
BRANCH   1  11
ATOM     11  N   GLN A   1      18.965  -5.151   0.802  0.00  0.00    -0.238 NA
ATOM     12  H   GLN A   1      19.836  -5.597   0.449  0.00  0.00    +0.142 HD
ENDBRANCH   1  11
BRANCH   1  13
ATOM     13  CB  GLN A   1      20.449  -4.065   2.440  0.00  0.00    +0.036 C 
BRANCH  13  14
ATOM     14  CG  GLN A   1      20.856  -5.306   3.228  0.00  0.00    +0.087 C 
BRANCH  14  15
ATOM     15  CD  GLN A   1      21.641  -6.295   2.402  0.00  0.00    +0.219 C 
ATOM     16  NE2 GLN A   1      22.534  -7.034   3.058  0.00  0.00    -0.329 N 
ATOM     17 HE21 GLN A   1      22.664  -6.905   4.082  0.00  0.00    +0.145 HD
ATOM     18 HE22 GLN A   1      23.101  -7.740   2.546  0.00  0.00    +0.145 HD
ATOM     19  OE1 GLN A   1      21.447  -6.407   1.189  0.00  0.00    -0.275 OA
ENDBRANCH  14  15
ENDBRANCH  13  14
ENDBRANCH   1  13
TORSDOF 8
REMARK  Name = ../refined-set-2016/1z95/1z95_pocket.pdb
REMARK  279 active torsions:
REMARK  status: ('A' for Active; 'I' for Inactive)
REMARK    1  A    between atoms: _1  and  _3
REMARK    2  A    between atoms: _3  and  _4
REMARK    3  A    between atoms: _3  and  _6
REMARK    4  A    between atoms: _9  and  _11
REMARK    5  A    between atoms: _11  and  _12
REMARK    6  A    between atoms: _15  and  _17
REMARK    7  A    between atoms: _17  and  _18
REMARK    8  A    between atoms: _17  and  _20
REMARK    9  A    between atoms: _20  and  _21
REMARK   10  A    between atoms: _27  and  _29
REMARK   11  A    between atoms: _29  and  _30
REMARK   12  A    between atoms: _29  and  _32
REMARK   13  A    between atoms: _32  and  _33
REMARK   14  A    between atoms: _36  and  _38
REMARK   15  A    between atoms: _38  and  _39
REMARK   16  A    between atoms: _38  and  _41
REMARK   17  A    between atoms: _41  and  _42
REMARK   18  A    between atoms: _45  and  _47
REMARK   19  A    between atoms: _47  and  _48
REMARK   20  A    between atoms: _47  and  _50
REMARK   21  A    between atoms: _50  and  _51
REMARK   22  A    between atoms: _53  and  _55
REMARK   23  A    between atoms: _55  and  _56
REMARK   24  A    between atoms: _55  and  _58
REMARK   25  A    between atoms: _58  and  _59
REMARK   26  A    between atoms: _61  and  _63
REMARK   27  A    between atoms: _63  and  _64
REMARK   28  A    between atoms: _63  and  _66
REMARK   29  A    between atoms: _66  and  _67
REMARK   30  A    between atoms: _70  and  _72
REMARK   31  A    between atoms: _72  and  _73
REMARK   32  A    between atoms: _72  and  _75
REMARK   33  A    between atoms: _75  and  _76
REMARK   34  A    between atoms: _81  and  _83
REMARK   35  A    between atoms: _83  and  _84
REMARK   36  A    between atoms: _83  and  _86
REMARK   37  A    between atoms: _86  and  _87
REMARK   38  A    between atoms: _87  and  _88
REMARK   39  A    between atoms: _91  and  _93
REMARK   40  A    between atoms: _93  and  _94
REMARK   41  A    between atoms: _93  and  _96
REMARK   42  A    between atoms: _96  and  _97
REMARK   43  A    between atoms: _100  and  _102
REMARK   44  A    between atoms: _102  and  _103
REMARK   45  A    between atoms: _105  and  _107
REMARK   46  A    between atoms: _107  and  _108
REMARK   47  A    between atoms: _107  and  _110
REMARK   48  A    between atoms: _110  and  _111
REMARK   49  A    between atoms: _111  and  _112
REMARK   50  A    between atoms: _115  and  _117
REMARK   51  A    between atoms: _117  and  _118
REMARK   52  A    between atoms: _117  and  _120
REMARK   53  A    between atoms: _120  and  _121
REMARK   54  A    between atoms: _121  and  _122
REMARK   55  A    between atoms: _122  and  _123
REMARK   56  A    between atoms: _132  and  _134
REMARK   57  A    between atoms: _134  and  _135
REMARK   58  A    between atoms: _134  and  _137
REMARK   59  A    between atoms: _137  and  _138
REMARK   60  A    between atoms: _138  and  _139
REMARK   61  A    between atoms: _144  and  _146
REMARK   62  A    between atoms: _146  and  _147
REMARK   63  A    between atoms: _146  and  _149
REMARK   64  A    between atoms: _149  and  _150
REMARK   65  A    between atoms: _153  and  _155
REMARK   66  A    between atoms: _155  and  _156
REMARK   67  A    between atoms: _155  and  _158
REMARK   68  A    between atoms: _158  and  _159
REMARK   69  A    between atoms: _162  and  _164
REMARK   70  A    between atoms: _164  and  _165
REMARK   71  A    between atoms: _164  and  _167
REMARK   72  A    between atoms: _167  and  _168
REMARK   73  A    between atoms: _168  and  _169
REMARK   74  A    between atoms: _174  and  _176
REMARK   75  A    between atoms: _176  and  _177
REMARK   76  A    between atoms: _176  and  _179
REMARK   77  A    between atoms: _179  and  _180
REMARK   78  A    between atoms: _185  and  _186
REMARK   79  A    between atoms: _188  and  _190
REMARK   80  A    between atoms: _190  and  _191
REMARK   81  A    between atoms: _190  and  _193
REMARK   82  A    between atoms: _193  and  _194
REMARK   83  A    between atoms: _196  and  _198
REMARK   84  A    between atoms: _198  and  _199
REMARK   85  A    between atoms: _198  and  _201
REMARK   86  A    between atoms: _201  and  _202
REMARK   87  A    between atoms: _205  and  _207
REMARK   88  A    between atoms: _207  and  _208
REMARK   89  A    between atoms: _207  and  _210
REMARK   90  A    between atoms: _210  and  _211
REMARK   91  A    between atoms: _211  and  _212
REMARK   92  A    between atoms: _214  and  _216
REMARK   93  A    between atoms: _216  and  _217
REMARK   94  A    between atoms: _219  and  _221
REMARK   95  A    between atoms: _221  and  _222
REMARK   96  A    between atoms: _221  and  _224
REMARK   97  A    between atoms: _224  and  _225
REMARK   98  A    between atoms: _228  and  _230
REMARK   99  A    between atoms: _230  and  _231
REMARK  100  A    between atoms: _230  and  _233
REMARK  101  A    between atoms: _233  and  _234
REMARK  102  A    between atoms: _234  and  _235
REMARK  103  A    between atoms: _237  and  _239
REMARK  104  A    between atoms: _239  and  _240
REMARK  105  A    between atoms: _239  and  _242
REMARK  106  A    between atoms: _245  and  _247
REMARK  107  A    between atoms: _247  and  _248
REMARK  108  A    between atoms: _247  and  _250
REMARK  109  A    between atoms: _250  and  _251
REMARK  110  A    between atoms: _257  and  _259
REMARK  111  A    between atoms: _259  and  _260
REMARK  112  A    between atoms: _263  and  _265
REMARK  113  A    between atoms: _265  and  _266
REMARK  114  A    between atoms: _265  and  _268
REMARK  115  A    between atoms: _268  and  _269
REMARK  116  A    between atoms: _269  and  _270
REMARK  117  A    between atoms: _272  and  _274
REMARK  118  A    between atoms: _274  and  _275
REMARK  119  A    between atoms: _277  and  _279
REMARK  120  A    between atoms: _279  and  _280
REMARK  121  A    between atoms: _279  and  _282
REMARK  122  A    between atoms: _282  and  _283
REMARK  123  A    between atoms: _293  and  _295
REMARK  124  A    between atoms: _295  and  _296
REMARK  125  A    between atoms: _295  and  _298
REMARK  126  A    between atoms: _298  and  _299
REMARK  127  A    between atoms: _299  and  _300
REMARK  128  A    between atoms: _300  and  _301
REMARK  129  A    between atoms: _310  and  _312
REMARK  130  A    between atoms: _312  and  _313
REMARK  131  A    between atoms: _312  and  _315
REMARK  132  A    between atoms: _315  and  _316
REMARK  133  A    between atoms: _318  and  _320
REMARK  134  A    between atoms: _320  and  _321
REMARK  135  A    between atoms: _320  and  _323
REMARK  136  A    between atoms: _323  and  _324
REMARK  137  A    between atoms: _327  and  _329
REMARK  138  A    between atoms: _329  and  _330
REMARK  139  A    between atoms: _329  and  _332
REMARK  140  A    between atoms: _332  and  _333
REMARK  141  A    between atoms: _338  and  _339
REMARK  142  A    between atoms: _341  and  _343
REMARK  143  A    between atoms: _343  and  _344
REMARK  144  A    between atoms: _343  and  _346
REMARK  145  A    between atoms: _346  and  _347
REMARK  146  A    between atoms: _353  and  _355
REMARK  147  A    between atoms: _355  and  _356
REMARK  148  A    between atoms: _359  and  _361
REMARK  149  A    between atoms: _361  and  _362
REMARK  150  A    between atoms: _361  and  _364
REMARK  151  A    between atoms: _364  and  _365
REMARK  152  A    between atoms: _368  and  _370
REMARK  153  A    between atoms: _370  and  _371
REMARK  154  A    between atoms: _370  and  _373
REMARK  155  A    between atoms: _373  and  _374
REMARK  156  A    between atoms: _380  and  _382
REMARK  157  A    between atoms: _382  and  _383
REMARK  158  A    between atoms: _382  and  _385
REMARK  159  A    between atoms: _385  and  _386
REMARK  160  A    between atoms: _388  and  _390
REMARK  161  A    between atoms: _390  and  _391
REMARK  162  A    between atoms: _390  and  _393
REMARK  163  A    between atoms: _393  and  _394
REMARK  164  A    between atoms: _394  and  _395
REMARK  165  A    between atoms: _397  and  _399
REMARK  166  A    between atoms: _399  and  _400
REMARK  167  A    between atoms: _399  and  _402
REMARK  168  A    between atoms: _402  and  _403
REMARK  169  A    between atoms: _403  and  _404
REMARK  170  A    between atoms: _409  and  _411
REMARK  171  A    between atoms: _411  and  _412
REMARK  172  A    between atoms: _411  and  _414
REMARK  173  A    between atoms: _416  and  _418
REMARK  174  A    between atoms: _418  and  _419
REMARK  175  A    between atoms: _418  and  _421
REMARK  176  A    between atoms: _421  and  _422
REMARK  177  A    between atoms: _422  and  _423
REMARK  178  A    between atoms: _425  and  _427
REMARK  179  A    between atoms: _427  and  _428
REMARK  180  A    between atoms: _427  and  _430
REMARK  181  A    between atoms: _430  and  _431
REMARK  182  A    between atoms: _434  and  _436
REMARK  183  A    between atoms: _436  and  _437
REMARK  184  A    between atoms: _436  and  _439
REMARK  185  A    between atoms: _439  and  _440
REMARK  186  A    between atoms: _443  and  _445
REMARK  187  A    between atoms: _445  and  _446
REMARK  188  A    between atoms: _445  and  _448
REMARK  189  A    between atoms: _451  and  _453
REMARK  190  A    between atoms: _453  and  _454
REMARK  191  A    between atoms: _453  and  _456
REMARK  192  A    between atoms: _456  and  _457
REMARK  193  A    between atoms: _460  and  _462
REMARK  194  A    between atoms: _462  and  _463
REMARK  195  A    between atoms: _466  and  _468
REMARK  196  A    between atoms: _468  and  _469
REMARK  197  A    between atoms: _468  and  _471
REMARK  198  A    between atoms: _471  and  _472
REMARK  199  A    between atoms: _475  and  _477
REMARK  200  A    between atoms: _477  and  _478
REMARK  201  A    between atoms: _477  and  _480
REMARK  202  A    between atoms: _480  and  _481
REMARK  203  A    between atoms: _486  and  _488
REMARK  204  A    between atoms: _488  and  _489
REMARK  205  A    between atoms: _488  and  _491
REMARK  206  A    between atoms: _491  and  _492
REMARK  207  A    between atoms: _498  and  _500
REMARK  208  A    between atoms: _500  and  _501
REMARK  209  A    between atoms: _500  and  _503
REMARK  210  A    between atoms: _503  and  _504
REMARK  211  A    between atoms: _507  and  _509
REMARK  212  A    between atoms: _509  and  _510
REMARK  213  A    between atoms: _509  and  _512
REMARK  214  A    between atoms: _512  and  _513
REMARK  215  A    between atoms: _519  and  _521
REMARK  216  A    between atoms: _521  and  _522
REMARK  217  A    between atoms: _521  and  _524
REMARK  218  A    between atoms: _524  and  _525
REMARK  219  A    between atoms: _528  and  _530
REMARK  220  A    between atoms: _530  and  _531
REMARK  221  A    between atoms: _530  and  _533
REMARK  222  A    between atoms: _533  and  _534
REMARK  223  A    between atoms: _537  and  _539
REMARK  224  A    between atoms: _539  and  _540
REMARK  225  A    between atoms: _539  and  _542
REMARK  226  A    between atoms: _545  and  _547
REMARK  227  A    between atoms: _547  and  _548
REMARK  228  A    between atoms: _547  and  _550
REMARK  229  A    between atoms: _550  and  _551
REMARK  230  A    between atoms: _554  and  _556
REMARK  231  A    between atoms: _556  and  _557
REMARK  232  A    between atoms: _556  and  _559
REMARK  233  A    between atoms: _559  and  _560
REMARK  234  A    between atoms: _567  and  _568
REMARK  235  A    between atoms: _573  and  _575
REMARK  236  A    between atoms: _575  and  _576
REMARK  237  A    between atoms: _575  and  _578
REMARK  238  A    between atoms: _578  and  _579
REMARK  239  A    between atoms: _579  and  _580
REMARK  240  A    between atoms: _582  and  _584
REMARK  241  A    between atoms: _584  and  _585
REMARK  242  A    between atoms: _584  and  _587
REMARK  243  A    between atoms: _587  and  _588
REMARK  244  A    between atoms: _588  and  _589
REMARK  245  A    between atoms: _591  and  _593
REMARK  246  A    between atoms: _593  and  _594
REMARK  247  A    between atoms: _597  and  _599
REMARK  248  A    between atoms: _599  and  _600
REMARK  249  A    between atoms: _599  and  _602
REMARK  250  A    between atoms: _602  and  _603
REMARK  251  A    between atoms: _603  and  _604
REMARK  252  A    between atoms: _607  and  _609
REMARK  253  A    between atoms: _609  and  _610
REMARK  254  A    between atoms: _609  and  _612
REMARK  255  A    between atoms: _612  and  _613
REMARK  256  A    between atoms: _616  and  _618
REMARK  257  A    between atoms: _618  and  _619
REMARK  258  A    between atoms: _618  and  _621
REMARK  259  A    between atoms: _621  and  _622
REMARK  260  A    between atoms: _625  and  _627
REMARK  261  A    between atoms: _627  and  _628
REMARK  262  A    between atoms: _627  and  _630
REMARK  263  A    between atoms: _630  and  _631
REMARK  264  A    between atoms: _633  and  _635
REMARK  265  A    between atoms: _635  and  _636
REMARK  266  A    between atoms: _635  and  _638
REMARK  267  A    between atoms: _641  and  _643
REMARK  268  A    between atoms: _643  and  _644
REMARK  269  A    between atoms: _643  and  _646
REMARK  270  A    between atoms: _646  and  _647
REMARK  271  A    between atoms: _647  and  _648
REMARK  272  A    between atoms: _653  and  _655
REMARK  273  A    between atoms: _655  and  _656
REMARK  274  A    between atoms: _655  and  _658
REMARK  275  A    between atoms: _662  and  _663
REMARK  276  A    between atoms: _668  and  _670
REMARK  277  A    between atoms: _670  and  _671
REMARK  278  A    between atoms: _670  and  _673
REMARK  279  A    between atoms: _673  and  _674
REMARK                            x       y       z     vdW  Elec       q    Type
REMARK                         _______ _______ _______ _____ _____    ______ ____
ROOT
ATOM      1  CA  MET A   1      16.120   1.285   2.871  0.00  0.00    +0.134 C 
ENDROOT
BRANCH   1   2
ATOM      2  N   MET A   1      15.793  -0.104   2.583  0.00  0.00    -0.239 NA
ATOM      3  H   MET A   1      16.482  -0.706   2.089  0.00  0.00    +0.142 HD
ENDBRANCH   1   2
BRANCH   1   4
ATOM      4  C   MET A   1      15.243   2.238   2.084  0.00  0.00    +0.224 C 
ATOM      5  O   MET A   1      14.889   3.309   2.578  0.00  0.00    -0.287 OA
ENDBRANCH   1   4
BRANCH   1   6
ATOM      6  CB  MET A   1      17.600   1.568   2.590  0.00  0.00    +0.037 C 
BRANCH   6   7
ATOM      7  CG  MET A   1      18.524   0.979   3.646  0.00  0.00    +0.059 C 
BRANCH   7   8
ATOM      8  SD  MET A   1      20.265   1.437   3.465  0.00  0.00    -0.139 S 
ATOM      9  CE  MET A   1      20.834   0.149   2.377  0.00  0.00    +0.069 C 
ENDBRANCH   7   8
ENDBRANCH   6   7
ENDBRANCH   1   6
TORSDOF 5
REMARK  Name = ../refined-set-2016/1z95/1z95_pocket.pdb
REMARK  279 active torsions:
REMARK  status: ('A' for Active; 'I' for Inactive)
REMARK    1  A    between atoms: _1  and  _3
REMARK    2  A    between atoms: _3  and  _4
REMARK    3  A    between atoms: _3  and  _6
REMARK    4  A    between atoms: _9  and  _11
REMARK    5  A    between atoms: _11  and  _12
REMARK    6  A    between atoms: _15  and  _17
REMARK    7  A    between atoms: _17  and  _18
REMARK    8  A    between atoms: _17  and  _20
REMARK    9  A    between atoms: _20  and  _21
REMARK   10  A    between atoms: _27  and  _29
REMARK   11  A    between atoms: _29  and  _30
REMARK   12  A    between atoms: _29  and  _32
REMARK   13  A    between atoms: _32  and  _33
REMARK   14  A    between atoms: _36  and  _38
REMARK   15  A    between atoms: _38  and  _39
REMARK   16  A    between atoms: _38  and  _41
REMARK   17  A    between atoms: _41  and  _42
REMARK   18  A    between atoms: _45  and  _47
REMARK   19  A    between atoms: _47  and  _48
REMARK   20  A    between atoms: _47  and  _50
REMARK   21  A    between atoms: _50  and  _51
REMARK   22  A    between atoms: _53  and  _55
REMARK   23  A    between atoms: _55  and  _56
REMARK   24  A    between atoms: _55  and  _58
REMARK   25  A    between atoms: _58  and  _59
REMARK   26  A    between atoms: _61  and  _63
REMARK   27  A    between atoms: _63  and  _64
REMARK   28  A    between atoms: _63  and  _66
REMARK   29  A    between atoms: _66  and  _67
REMARK   30  A    between atoms: _70  and  _72
REMARK   31  A    between atoms: _72  and  _73
REMARK   32  A    between atoms: _72  and  _75
REMARK   33  A    between atoms: _75  and  _76
REMARK   34  A    between atoms: _81  and  _83
REMARK   35  A    between atoms: _83  and  _84
REMARK   36  A    between atoms: _83  and  _86
REMARK   37  A    between atoms: _86  and  _87
REMARK   38  A    between atoms: _87  and  _88
REMARK   39  A    between atoms: _91  and  _93
REMARK   40  A    between atoms: _93  and  _94
REMARK   41  A    between atoms: _93  and  _96
REMARK   42  A    between atoms: _96  and  _97
REMARK   43  A    between atoms: _100  and  _102
REMARK   44  A    between atoms: _102  and  _103
REMARK   45  A    between atoms: _105  and  _107
REMARK   46  A    between atoms: _107  and  _108
REMARK   47  A    between atoms: _107  and  _110
REMARK   48  A    between atoms: _110  and  _111
REMARK   49  A    between atoms: _111  and  _112
REMARK   50  A    between atoms: _115  and  _117
REMARK   51  A    between atoms: _117  and  _118
REMARK   52  A    between atoms: _117  and  _120
REMARK   53  A    between atoms: _120  and  _121
REMARK   54  A    between atoms: _121  and  _122
REMARK   55  A    between atoms: _122  and  _123
REMARK   56  A    between atoms: _132  and  _134
REMARK   57  A    between atoms: _134  and  _135
REMARK   58  A    between atoms: _134  and  _137
REMARK   59  A    between atoms: _137  and  _138
REMARK   60  A    between atoms: _138  and  _139
REMARK   61  A    between atoms: _144  and  _146
REMARK   62  A    between atoms: _146  and  _147
REMARK   63  A    between atoms: _146  and  _149
REMARK   64  A    between atoms: _149  and  _150
REMARK   65  A    between atoms: _153  and  _155
REMARK   66  A    between atoms: _155  and  _156
REMARK   67  A    between atoms: _155  and  _158
REMARK   68  A    between atoms: _158  and  _159
REMARK   69  A    between atoms: _162  and  _164
REMARK   70  A    between atoms: _164  and  _165
REMARK   71  A    between atoms: _164  and  _167
REMARK   72  A    between atoms: _167  and  _168
REMARK   73  A    between atoms: _168  and  _169
REMARK   74  A    between atoms: _174  and  _176
REMARK   75  A    between atoms: _176  and  _177
REMARK   76  A    between atoms: _176  and  _179
REMARK   77  A    between atoms: _179  and  _180
REMARK   78  A    between atoms: _185  and  _186
REMARK   79  A    between atoms: _188  and  _190
REMARK   80  A    between atoms: _190  and  _191
REMARK   81  A    between atoms: _190  and  _193
REMARK   82  A    between atoms: _193  and  _194
REMARK   83  A    between atoms: _196  and  _198
REMARK   84  A    between atoms: _198  and  _199
REMARK   85  A    between atoms: _198  and  _201
REMARK   86  A    between atoms: _201  and  _202
REMARK   87  A    between atoms: _205  and  _207
REMARK   88  A    between atoms: _207  and  _208
REMARK   89  A    between atoms: _207  and  _210
REMARK   90  A    between atoms: _210  and  _211
REMARK   91  A    between atoms: _211  and  _212
REMARK   92  A    between atoms: _214  and  _216
REMARK   93  A    between atoms: _216  and  _217
REMARK   94  A    between atoms: _219  and  _221
REMARK   95  A    between atoms: _221  and  _222
REMARK   96  A    between atoms: _221  and  _224
REMARK   97  A    between atoms: _224  and  _225
REMARK   98  A    between atoms: _228  and  _230
REMARK   99  A    between atoms: _230  and  _231
REMARK  100  A    between atoms: _230  and  _233
REMARK  101  A    between atoms: _233  and  _234
REMARK  102  A    between atoms: _234  and  _235
REMARK  103  A    between atoms: _237  and  _239
REMARK  104  A    between atoms: _239  and  _240
REMARK  105  A    between atoms: _239  and  _242
REMARK  106  A    between atoms: _245  and  _247
REMARK  107  A    between atoms: _247  and  _248
REMARK  108  A    between atoms: _247  and  _250
REMARK  109  A    between atoms: _250  and  _251
REMARK  110  A    between atoms: _257  and  _259
REMARK  111  A    between atoms: _259  and  _260
REMARK  112  A    between atoms: _263  and  _265
REMARK  113  A    between atoms: _265  and  _266
REMARK  114  A    between atoms: _265  and  _268
REMARK  115  A    between atoms: _268  and  _269
REMARK  116  A    between atoms: _269  and  _270
REMARK  117  A    between atoms: _272  and  _274
REMARK  118  A    between atoms: _274  and  _275
REMARK  119  A    between atoms: _277  and  _279
REMARK  120  A    between atoms: _279  and  _280
REMARK  121  A    between atoms: _279  and  _282
REMARK  122  A    between atoms: _282  and  _283
REMARK  123  A    between atoms: _293  and  _295
REMARK  124  A    between atoms: _295  and  _296
REMARK  125  A    between atoms: _295  and  _298
REMARK  126  A    between atoms: _298  and  _299
REMARK  127  A    between atoms: _299  and  _300
REMARK  128  A    between atoms: _300  and  _301
REMARK  129  A    between atoms: _310  and  _312
REMARK  130  A    between atoms: _312  and  _313
REMARK  131  A    between atoms: _312  and  _315
REMARK  132  A    between atoms: _315  and  _316
REMARK  133  A    between atoms: _318  and  _320
REMARK  134  A    between atoms: _320  and  _321
REMARK  135  A    between atoms: _320  and  _323
REMARK  136  A    between atoms: _323  and  _324
REMARK  137  A    between atoms: _327  and  _329
REMARK  138  A    between atoms: _329  and  _330
REMARK  139  A    between atoms: _329  and  _332
REMARK  140  A    between atoms: _332  and  _333
REMARK  141  A    between atoms: _338  and  _339
REMARK  142  A    between atoms: _341  and  _343
REMARK  143  A    between atoms: _343  and  _344
REMARK  144  A    between atoms: _343  and  _346
REMARK  145  A    between atoms: _346  and  _347
REMARK  146  A    between atoms: _353  and  _355
REMARK  147  A    between atoms: _355  and  _356
REMARK  148  A    between atoms: _359  and  _361
REMARK  149  A    between atoms: _361  and  _362
REMARK  150  A    between atoms: _361  and  _364
REMARK  151  A    between atoms: _364  and  _365
REMARK  152  A    between atoms: _368  and  _370
REMARK  153  A    between atoms: _370  and  _371
REMARK  154  A    between atoms: _370  and  _373
REMARK  155  A    between atoms: _373  and  _374
REMARK  156  A    between atoms: _380  and  _382
REMARK  157  A    between atoms: _382  and  _383
REMARK  158  A    between atoms: _382  and  _385
REMARK  159  A    between atoms: _385  and  _386
REMARK  160  A    between atoms: _388  and  _390
REMARK  161  A    between atoms: _390  and  _391
REMARK  162  A    between atoms: _390  and  _393
REMARK  163  A    between atoms: _393  and  _394
REMARK  164  A    between atoms: _394  and  _395
REMARK  165  A    between atoms: _397  and  _399
REMARK  166  A    between atoms: _399  and  _400
REMARK  167  A    between atoms: _399  and  _402
REMARK  168  A    between atoms: _402  and  _403
REMARK  169  A    between atoms: _403  and  _404
REMARK  170  A    between atoms: _409  and  _411
REMARK  171  A    between atoms: _411  and  _412
REMARK  172  A    between atoms: _411  and  _414
REMARK  173  A    between atoms: _416  and  _418
REMARK  174  A    between atoms: _418  and  _419
REMARK  175  A    between atoms: _418  and  _421
REMARK  176  A    between atoms: _421  and  _422
REMARK  177  A    between atoms: _422  and  _423
REMARK  178  A    between atoms: _425  and  _427
REMARK  179  A    between atoms: _427  and  _428
REMARK  180  A    between atoms: _427  and  _430
REMARK  181  A    between atoms: _430  and  _431
REMARK  182  A    between atoms: _434  and  _436
REMARK  183  A    between atoms: _436  and  _437
REMARK  184  A    between atoms: _436  and  _439
REMARK  185  A    between atoms: _439  and  _440
REMARK  186  A    between atoms: _443  and  _445
REMARK  187  A    between atoms: _445  and  _446
REMARK  188  A    between atoms: _445  and  _448
REMARK  189  A    between atoms: _451  and  _453
REMARK  190  A    between atoms: _453  and  _454
REMARK  191  A    between atoms: _453  and  _456
REMARK  192  A    between atoms: _456  and  _457
REMARK  193  A    between atoms: _460  and  _462
REMARK  194  A    between atoms: _462  and  _463
REMARK  195  A    between atoms: _466  and  _468
REMARK  196  A    between atoms: _468  and  _469
REMARK  197  A    between atoms: _468  and  _471
REMARK  198  A    between atoms: _471  and  _472
REMARK  199  A    between atoms: _475  and  _477
REMARK  200  A    between atoms: _477  and  _478
REMARK  201  A    between atoms: _477  and  _480
REMARK  202  A    between atoms: _480  and  _481
REMARK  203  A    between atoms: _486  and  _488
REMARK  204  A    between atoms: _488  and  _489
REMARK  205  A    between atoms: _488  and  _491
REMARK  206  A    between atoms: _491  and  _492
REMARK  207  A    between atoms: _498  and  _500
REMARK  208  A    between atoms: _500  and  _501
REMARK  209  A    between atoms: _500  and  _503
REMARK  210  A    between atoms: _503  and  _504
REMARK  211  A    between atoms: _507  and  _509
REMARK  212  A    between atoms: _509  and  _510
REMARK  213  A    between atoms: _509  and  _512
REMARK  214  A    between atoms: _512  and  _513
REMARK  215  A    between atoms: _519  and  _521
REMARK  216  A    between atoms: _521  and  _522
REMARK  217  A    between atoms: _521  and  _524
REMARK  218  A    between atoms: _524  and  _525
REMARK  219  A    between atoms: _528  and  _530
REMARK  220  A    between atoms: _530  and  _531
REMARK  221  A    between atoms: _530  and  _533
REMARK  222  A    between atoms: _533  and  _534
REMARK  223  A    between atoms: _537  and  _539
REMARK  224  A    between atoms: _539  and  _540
REMARK  225  A    between atoms: _539  and  _542
REMARK  226  A    between atoms: _545  and  _547
REMARK  227  A    between atoms: _547  and  _548
REMARK  228  A    between atoms: _547  and  _550
REMARK  229  A    between atoms: _550  and  _551
REMARK  230  A    between atoms: _554  and  _556
REMARK  231  A    between atoms: _556  and  _557
REMARK  232  A    between atoms: _556  and  _559
REMARK  233  A    between atoms: _559  and  _560
REMARK  234  A    between atoms: _567  and  _568
REMARK  235  A    between atoms: _573  and  _575
REMARK  236  A    between atoms: _575  and  _576
REMARK  237  A    between atoms: _575  and  _578
REMARK  238  A    between atoms: _578  and  _579
REMARK  239  A    between atoms: _579  and  _580
REMARK  240  A    between atoms: _582  and  _584
REMARK  241  A    between atoms: _584  and  _585
REMARK  242  A    between atoms: _584  and  _587
REMARK  243  A    between atoms: _587  and  _588
REMARK  244  A    between atoms: _588  and  _589
REMARK  245  A    between atoms: _591  and  _593
REMARK  246  A    between atoms: _593  and  _594
REMARK  247  A    between atoms: _597  and  _599
REMARK  248  A    between atoms: _599  and  _600
REMARK  249  A    between atoms: _599  and  _602
REMARK  250  A    between atoms: _602  and  _603
REMARK  251  A    between atoms: _603  and  _604
REMARK  252  A    between atoms: _607  and  _609
REMARK  253  A    between atoms: _609  and  _610
REMARK  254  A    between atoms: _609  and  _612
REMARK  255  A    between atoms: _612  and  _613
REMARK  256  A    between atoms: _616  and  _618
REMARK  257  A    between atoms: _618  and  _619
REMARK  258  A    between atoms: _618  and  _621
REMARK  259  A    between atoms: _621  and  _622
REMARK  260  A    between atoms: _625  and  _627
REMARK  261  A    between atoms: _627  and  _628
REMARK  262  A    between atoms: _627  and  _630
REMARK  263  A    between atoms: _630  and  _631
REMARK  264  A    between atoms: _633  and  _635
REMARK  265  A    between atoms: _635  and  _636
REMARK  266  A    between atoms: _635  and  _638
REMARK  267  A    between atoms: _641  and  _643
REMARK  268  A    between atoms: _643  and  _644
REMARK  269  A    between atoms: _643  and  _646
REMARK  270  A    between atoms: _646  and  _647
REMARK  271  A    between atoms: _647  and  _648
REMARK  272  A    between atoms: _653  and  _655
REMARK  273  A    between atoms: _655  and  _656
REMARK  274  A    between atoms: _655  and  _658
REMARK  275  A    between atoms: _662  and  _663
REMARK  276  A    between atoms: _668  and  _670
REMARK  277  A    between atoms: _670  and  _671
REMARK  278  A    between atoms: _670  and  _673
REMARK  279  A    between atoms: _673  and  _674
REMARK                            x       y       z     vdW  Elec       q    Type
REMARK                         _______ _______ _______ _____ _____    ______ ____
ROOT
ATOM      1  CA  LEU A   1      12.052   3.339   5.007  0.00  0.00    +0.133 C 
ENDROOT
BRANCH   1   2
ATOM      2  N   LEU A   1      11.960   2.431   3.862  0.00  0.00    -0.239 NA
ATOM      3  H   LEU A   1      12.752   1.787   3.662  0.00  0.00    +0.142 HD
ENDBRANCH   1   2
BRANCH   1   4
ATOM      4  C   LEU A   1      11.929   4.774   4.500  0.00  0.00    +0.224 C 
ATOM      5  O   LEU A   1      11.126   5.558   5.010  0.00  0.00    -0.287 OA
ENDBRANCH   1   4
BRANCH   1   6
ATOM      6  CB  LEU A   1      13.400   3.159   5.715  0.00  0.00    +0.025 C 
BRANCH   6   7
ATOM      7  CG  LEU A   1      13.632   3.774   7.102  0.00  0.00    +0.002 C 
ATOM      8  CD2 LEU A   1      15.133   3.804   7.357  0.00  0.00    +0.000 C 
ATOM      9  CD1 LEU A   1      13.069   5.183   7.195  0.00  0.00    +0.000 C 
ENDBRANCH   6   7
ENDBRANCH   1   6
TORSDOF 4
REMARK  Name = ../refined-set-2016/1z95/1z95_pocket.pdb
REMARK  279 active torsions:
REMARK  status: ('A' for Active; 'I' for Inactive)
REMARK    1  A    between atoms: _1  and  _3
REMARK    2  A    between atoms: _3  and  _4
REMARK    3  A    between atoms: _3  and  _6
REMARK    4  A    between atoms: _9  and  _11
REMARK    5  A    between atoms: _11  and  _12
REMARK    6  A    between atoms: _15  and  _17
REMARK    7  A    between atoms: _17  and  _18
REMARK    8  A    between atoms: _17  and  _20
REMARK    9  A    between atoms: _20  and  _21
REMARK   10  A    between atoms: _27  and  _29
REMARK   11  A    between atoms: _29  and  _30
REMARK   12  A    between atoms: _29  and  _32
REMARK   13  A    between atoms: _32  and  _33
REMARK   14  A    between atoms: _36  and  _38
REMARK   15  A    between atoms: _38  and  _39
REMARK   16  A    between atoms: _38  and  _41
REMARK   17  A    between atoms: _41  and  _42
REMARK   18  A    between atoms: _45  and  _47
REMARK   19  A    between atoms: _47  and  _48
REMARK   20  A    between atoms: _47  and  _50
REMARK   21  A    between atoms: _50  and  _51
REMARK   22  A    between atoms: _53  and  _55
REMARK   23  A    between atoms: _55  and  _56
REMARK   24  A    between atoms: _55  and  _58
REMARK   25  A    between atoms: _58  and  _59
REMARK   26  A    between atoms: _61  and  _63
REMARK   27  A    between atoms: _63  and  _64
REMARK   28  A    between atoms: _63  and  _66
REMARK   29  A    between atoms: _66  and  _67
REMARK   30  A    between atoms: _70  and  _72
REMARK   31  A    between atoms: _72  and  _73
REMARK   32  A    between atoms: _72  and  _75
REMARK   33  A    between atoms: _75  and  _76
REMARK   34  A    between atoms: _81  and  _83
REMARK   35  A    between atoms: _83  and  _84
REMARK   36  A    between atoms: _83  and  _86
REMARK   37  A    between atoms: _86  and  _87
REMARK   38  A    between atoms: _87  and  _88
REMARK   39  A    between atoms: _91  and  _93
REMARK   40  A    between atoms: _93  and  _94
REMARK   41  A    between atoms: _93  and  _96
REMARK   42  A    between atoms: _96  and  _97
REMARK   43  A    between atoms: _100  and  _102
REMARK   44  A    between atoms: _102  and  _103
REMARK   45  A    between atoms: _105  and  _107
REMARK   46  A    between atoms: _107  and  _108
REMARK   47  A    between atoms: _107  and  _110
REMARK   48  A    between atoms: _110  and  _111
REMARK   49  A    between atoms: _111  and  _112
REMARK   50  A    between atoms: _115  and  _117
REMARK   51  A    between atoms: _117  and  _118
REMARK   52  A    between atoms: _117  and  _120
REMARK   53  A    between atoms: _120  and  _121
REMARK   54  A    between atoms: _121  and  _122
REMARK   55  A    between atoms: _122  and  _123
REMARK   56  A    between atoms: _132  and  _134
REMARK   57  A    between atoms: _134  and  _135
REMARK   58  A    between atoms: _134  and  _137
REMARK   59  A    between atoms: _137  and  _138
REMARK   60  A    between atoms: _138  and  _139
REMARK   61  A    between atoms: _144  and  _146
REMARK   62  A    between atoms: _146  and  _147
REMARK   63  A    between atoms: _146  and  _149
REMARK   64  A    between atoms: _149  and  _150
REMARK   65  A    between atoms: _153  and  _155
REMARK   66  A    between atoms: _155  and  _156
REMARK   67  A    between atoms: _155  and  _158
REMARK   68  A    between atoms: _158  and  _159
REMARK   69  A    between atoms: _162  and  _164
REMARK   70  A    between atoms: _164  and  _165
REMARK   71  A    between atoms: _164  and  _167
REMARK   72  A    between atoms: _167  and  _168
REMARK   73  A    between atoms: _168  and  _169
REMARK   74  A    between atoms: _174  and  _176
REMARK   75  A    between atoms: _176  and  _177
REMARK   76  A    between atoms: _176  and  _179
REMARK   77  A    between atoms: _179  and  _180
REMARK   78  A    between atoms: _185  and  _186
REMARK   79  A    between atoms: _188  and  _190
REMARK   80  A    between atoms: _190  and  _191
REMARK   81  A    between atoms: _190  and  _193
REMARK   82  A    between atoms: _193  and  _194
REMARK   83  A    between atoms: _196  and  _198
REMARK   84  A    between atoms: _198  and  _199
REMARK   85  A    between atoms: _198  and  _201
REMARK   86  A    between atoms: _201  and  _202
REMARK   87  A    between atoms: _205  and  _207
REMARK   88  A    between atoms: _207  and  _208
REMARK   89  A    between atoms: _207  and  _210
REMARK   90  A    between atoms: _210  and  _211
REMARK   91  A    between atoms: _211  and  _212
REMARK   92  A    between atoms: _214  and  _216
REMARK   93  A    between atoms: _216  and  _217
REMARK   94  A    between atoms: _219  and  _221
REMARK   95  A    between atoms: _221  and  _222
REMARK   96  A    between atoms: _221  and  _224
REMARK   97  A    between atoms: _224  and  _225
REMARK   98  A    between atoms: _228  and  _230
REMARK   99  A    between atoms: _230  and  _231
REMARK  100  A    between atoms: _230  and  _233
REMARK  101  A    between atoms: _233  and  _234
REMARK  102  A    between atoms: _234  and  _235
REMARK  103  A    between atoms: _237  and  _239
REMARK  104  A    between atoms: _239  and  _240
REMARK  105  A    between atoms: _239  and  _242
REMARK  106  A    between atoms: _245  and  _247
REMARK  107  A    between atoms: _247  and  _248
REMARK  108  A    between atoms: _247  and  _250
REMARK  109  A    between atoms: _250  and  _251
REMARK  110  A    between atoms: _257  and  _259
REMARK  111  A    between atoms: _259  and  _260
REMARK  112  A    between atoms: _263  and  _265
REMARK  113  A    between atoms: _265  and  _266
REMARK  114  A    between atoms: _265  and  _268
REMARK  115  A    between atoms: _268  and  _269
REMARK  116  A    between atoms: _269  and  _270
REMARK  117  A    between atoms: _272  and  _274
REMARK  118  A    between atoms: _274  and  _275
REMARK  119  A    between atoms: _277  and  _279
REMARK  120  A    between atoms: _279  and  _280
REMARK  121  A    between atoms: _279  and  _282
REMARK  122  A    between atoms: _282  and  _283
REMARK  123  A    between atoms: _293  and  _295
REMARK  124  A    between atoms: _295  and  _296
REMARK  125  A    between atoms: _295  and  _298
REMARK  126  A    between atoms: _298  and  _299
REMARK  127  A    between atoms: _299  and  _300
REMARK  128  A    between atoms: _300  and  _301
REMARK  129  A    between atoms: _310  and  _312
REMARK  130  A    between atoms: _312  and  _313
REMARK  131  A    between atoms: _312  and  _315
REMARK  132  A    between atoms: _315  and  _316
REMARK  133  A    between atoms: _318  and  _320
REMARK  134  A    between atoms: _320  and  _321
REMARK  135  A    between atoms: _320  and  _323
REMARK  136  A    between atoms: _323  and  _324
REMARK  137  A    between atoms: _327  and  _329
REMARK  138  A    between atoms: _329  and  _330
REMARK  139  A    between atoms: _329  and  _332
REMARK  140  A    between atoms: _332  and  _333
REMARK  141  A    between atoms: _338  and  _339
REMARK  142  A    between atoms: _341  and  _343
REMARK  143  A    between atoms: _343  and  _344
REMARK  144  A    between atoms: _343  and  _346
REMARK  145  A    between atoms: _346  and  _347
REMARK  146  A    between atoms: _353  and  _355
REMARK  147  A    between atoms: _355  and  _356
REMARK  148  A    between atoms: _359  and  _361
REMARK  149  A    between atoms: _361  and  _362
REMARK  150  A    between atoms: _361  and  _364
REMARK  151  A    between atoms: _364  and  _365
REMARK  152  A    between atoms: _368  and  _370
REMARK  153  A    between atoms: _370  and  _371
REMARK  154  A    between atoms: _370  and  _373
REMARK  155  A    between atoms: _373  and  _374
REMARK  156  A    between atoms: _380  and  _382
REMARK  157  A    between atoms: _382  and  _383
REMARK  158  A    between atoms: _382  and  _385
REMARK  159  A    between atoms: _385  and  _386
REMARK  160  A    between atoms: _388  and  _390
REMARK  161  A    between atoms: _390  and  _391
REMARK  162  A    between atoms: _390  and  _393
REMARK  163  A    between atoms: _393  and  _394
REMARK  164  A    between atoms: _394  and  _395
REMARK  165  A    between atoms: _397  and  _399
REMARK  166  A    between atoms: _399  and  _400
REMARK  167  A    between atoms: _399  and  _402
REMARK  168  A    between atoms: _402  and  _403
REMARK  169  A    between atoms: _403  and  _404
REMARK  170  A    between atoms: _409  and  _411
REMARK  171  A    between atoms: _411  and  _412
REMARK  172  A    between atoms: _411  and  _414
REMARK  173  A    between atoms: _416  and  _418
REMARK  174  A    between atoms: _418  and  _419
REMARK  175  A    between atoms: _418  and  _421
REMARK  176  A    between atoms: _421  and  _422
REMARK  177  A    between atoms: _422  and  _423
REMARK  178  A    between atoms: _425  and  _427
REMARK  179  A    between atoms: _427  and  _428
REMARK  180  A    between atoms: _427  and  _430
REMARK  181  A    between atoms: _430  and  _431
REMARK  182  A    between atoms: _434  and  _436
REMARK  183  A    between atoms: _436  and  _437
REMARK  184  A    between atoms: _436  and  _439
REMARK  185  A    between atoms: _439  and  _440
REMARK  186  A    between atoms: _443  and  _445
REMARK  187  A    between atoms: _445  and  _446
REMARK  188  A    between atoms: _445  and  _448
REMARK  189  A    between atoms: _451  and  _453
REMARK  190  A    between atoms: _453  and  _454
REMARK  191  A    between atoms: _453  and  _456
REMARK  192  A    between atoms: _456  and  _457
REMARK  193  A    between atoms: _460  and  _462
REMARK  194  A    between atoms: _462  and  _463
REMARK  195  A    between atoms: _466  and  _468
REMARK  196  A    between atoms: _468  and  _469
REMARK  197  A    between atoms: _468  and  _471
REMARK  198  A    between atoms: _471  and  _472
REMARK  199  A    between atoms: _475  and  _477
REMARK  200  A    between atoms: _477  and  _478
REMARK  201  A    between atoms: _477  and  _480
REMARK  202  A    between atoms: _480  and  _481
REMARK  203  A    between atoms: _486  and  _488
REMARK  204  A    between atoms: _488  and  _489
REMARK  205  A    between atoms: _488  and  _491
REMARK  206  A    between atoms: _491  and  _492
REMARK  207  A    between atoms: _498  and  _500
REMARK  208  A    between atoms: _500  and  _501
REMARK  209  A    between atoms: _500  and  _503
REMARK  210  A    between atoms: _503  and  _504
REMARK  211  A    between atoms: _507  and  _509
REMARK  212  A    between atoms: _509  and  _510
REMARK  213  A    between atoms: _509  and  _512
REMARK  214  A    between atoms: _512  and  _513
REMARK  215  A    between atoms: _519  and  _521
REMARK  216  A    between atoms: _521  and  _522
REMARK  217  A    between atoms: _521  and  _524
REMARK  218  A    between atoms: _524  and  _525
REMARK  219  A    between atoms: _528  and  _530
REMARK  220  A    between atoms: _530  and  _531
REMARK  221  A    between atoms: _530  and  _533
REMARK  222  A    between atoms: _533  and  _534
REMARK  223  A    between atoms: _537  and  _539
REMARK  224  A    between atoms: _539  and  _540
REMARK  225  A    between atoms: _539  and  _542
REMARK  226  A    between atoms: _545  and  _547
REMARK  227  A    between atoms: _547  and  _548
REMARK  228  A    between atoms: _547  and  _550
REMARK  229  A    between atoms: _550  and  _551
REMARK  230  A    between atoms: _554  and  _556
REMARK  231  A    between atoms: _556  and  _557
REMARK  232  A    between atoms: _556  and  _559
REMARK  233  A    between atoms: _559  and  _560
REMARK  234  A    between atoms: _567  and  _568
REMARK  235  A    between atoms: _573  and  _575
REMARK  236  A    between atoms: _575  and  _576
REMARK  237  A    between atoms: _575  and  _578
REMARK  238  A    between atoms: _578  and  _579
REMARK  239  A    between atoms: _579  and  _580
REMARK  240  A    between atoms: _582  and  _584
REMARK  241  A    between atoms: _584  and  _585
REMARK  242  A    between atoms: _584  and  _587
REMARK  243  A    between atoms: _587  and  _588
REMARK  244  A    between atoms: _588  and  _589
REMARK  245  A    between atoms: _591  and  _593
REMARK  246  A    between atoms: _593  and  _594
REMARK  247  A    between atoms: _597  and  _599
REMARK  248  A    between atoms: _599  and  _600
REMARK  249  A    between atoms: _599  and  _602
REMARK  250  A    between atoms: _602  and  _603
REMARK  251  A    between atoms: _603  and  _604
REMARK  252  A    between atoms: _607  and  _609
REMARK  253  A    between atoms: _609  and  _610
REMARK  254  A    between atoms: _609  and  _612
REMARK  255  A    between atoms: _612  and  _613
REMARK  256  A    between atoms: _616  and  _618
REMARK  257  A    between atoms: _618  and  _619
REMARK  258  A    between atoms: _618  and  _621
REMARK  259  A    between atoms: _621  and  _622
REMARK  260  A    between atoms: _625  and  _627
REMARK  261  A    between atoms: _627  and  _628
REMARK  262  A    between atoms: _627  and  _630
REMARK  263  A    between atoms: _630  and  _631
REMARK  264  A    between atoms: _633  and  _635
REMARK  265  A    between atoms: _635  and  _636
REMARK  266  A    between atoms: _635  and  _638
REMARK  267  A    between atoms: _641  and  _643
REMARK  268  A    between atoms: _643  and  _644
REMARK  269  A    between atoms: _643  and  _646
REMARK  270  A    between atoms: _646  and  _647
REMARK  271  A    between atoms: _647  and  _648
REMARK  272  A    between atoms: _653  and  _655
REMARK  273  A    between atoms: _655  and  _656
REMARK  274  A    between atoms: _655  and  _658
REMARK  275  A    between atoms: _662  and  _663
REMARK  276  A    between atoms: _668  and  _670
REMARK  277  A    between atoms: _670  and  _671
REMARK  278  A    between atoms: _670  and  _673
REMARK  279  A    between atoms: _673  and  _674
REMARK                            x       y       z     vdW  Elec       q    Type
REMARK                         _______ _______ _______ _____ _____    ______ ____
ROOT
ATOM      1  CA  ILE A   1      21.296   0.202  21.270  0.00  0.00    +0.133 C 
ENDROOT
BRANCH   1   2
ATOM      2  N   ILE A   1      20.565   1.466  21.344  0.00  0.00    -0.239 NA
ATOM      3  H   ILE A   1      21.040   2.320  21.700  0.00  0.00    +0.142 HD
ENDBRANCH   1   2
BRANCH   1   4
ATOM      4  C   ILE A   1      22.392   0.174  22.331  0.00  0.00    +0.224 C 
ATOM      5  O   ILE A   1      23.264   1.041  22.359  0.00  0.00    -0.287 OA
ENDBRANCH   1   4
BRANCH   1   6
ATOM      6  CB  ILE A   1      21.874  -0.026  19.841  0.00  0.00    +0.023 C 
ATOM      7  CG2 ILE A   1      22.693   1.177  19.396  0.00  0.00    +0.002 C 
BRANCH   6   8
ATOM      8  CG1 ILE A   1      22.703  -1.310  19.807  0.00  0.00    +0.002 C 
ATOM      9  CD1 ILE A   1      23.102  -1.728  18.405  0.00  0.00    +0.000 C 
ENDBRANCH   6   8
ENDBRANCH   1   6
TORSDOF 4
REMARK  Name = ../refined-set-2016/1z95/1z95_pocket.pdb
REMARK  279 active torsions:
REMARK  status: ('A' for Active; 'I' for Inactive)
REMARK    1  A    between atoms: _1  and  _3
REMARK    2  A    between atoms: _3  and  _4
REMARK    3  A    between atoms: _3  and  _6
REMARK    4  A    between atoms: _9  and  _11
REMARK    5  A    between atoms: _11  and  _12
REMARK    6  A    between atoms: _15  and  _17
REMARK    7  A    between atoms: _17  and  _18
REMARK    8  A    between atoms: _17  and  _20
REMARK    9  A    between atoms: _20  and  _21
REMARK   10  A    between atoms: _27  and  _29
REMARK   11  A    between atoms: _29  and  _30
REMARK   12  A    between atoms: _29  and  _32
REMARK   13  A    between atoms: _32  and  _33
REMARK   14  A    between atoms: _36  and  _38
REMARK   15  A    between atoms: _38  and  _39
REMARK   16  A    between atoms: _38  and  _41
REMARK   17  A    between atoms: _41  and  _42
REMARK   18  A    between atoms: _45  and  _47
REMARK   19  A    between atoms: _47  and  _48
REMARK   20  A    between atoms: _47  and  _50
REMARK   21  A    between atoms: _50  and  _51
REMARK   22  A    between atoms: _53  and  _55
REMARK   23  A    between atoms: _55  and  _56
REMARK   24  A    between atoms: _55  and  _58
REMARK   25  A    between atoms: _58  and  _59
REMARK   26  A    between atoms: _61  and  _63
REMARK   27  A    between atoms: _63  and  _64
REMARK   28  A    between atoms: _63  and  _66
REMARK   29  A    between atoms: _66  and  _67
REMARK   30  A    between atoms: _70  and  _72
REMARK   31  A    between atoms: _72  and  _73
REMARK   32  A    between atoms: _72  and  _75
REMARK   33  A    between atoms: _75  and  _76
REMARK   34  A    between atoms: _81  and  _83
REMARK   35  A    between atoms: _83  and  _84
REMARK   36  A    between atoms: _83  and  _86
REMARK   37  A    between atoms: _86  and  _87
REMARK   38  A    between atoms: _87  and  _88
REMARK   39  A    between atoms: _91  and  _93
REMARK   40  A    between atoms: _93  and  _94
REMARK   41  A    between atoms: _93  and  _96
REMARK   42  A    between atoms: _96  and  _97
REMARK   43  A    between atoms: _100  and  _102
REMARK   44  A    between atoms: _102  and  _103
REMARK   45  A    between atoms: _105  and  _107
REMARK   46  A    between atoms: _107  and  _108
REMARK   47  A    between atoms: _107  and  _110
REMARK   48  A    between atoms: _110  and  _111
REMARK   49  A    between atoms: _111  and  _112
REMARK   50  A    between atoms: _115  and  _117
REMARK   51  A    between atoms: _117  and  _118
REMARK   52  A    between atoms: _117  and  _120
REMARK   53  A    between atoms: _120  and  _121
REMARK   54  A    between atoms: _121  and  _122
REMARK   55  A    between atoms: _122  and  _123
REMARK   56  A    between atoms: _132  and  _134
REMARK   57  A    between atoms: _134  and  _135
REMARK   58  A    between atoms: _134  and  _137
REMARK   59  A    between atoms: _137  and  _138
REMARK   60  A    between atoms: _138  and  _139
REMARK   61  A    between atoms: _144  and  _146
REMARK   62  A    between atoms: _146  and  _147
REMARK   63  A    between atoms: _146  and  _149
REMARK   64  A    between atoms: _149  and  _150
REMARK   65  A    between atoms: _153  and  _155
REMARK   66  A    between atoms: _155  and  _156
REMARK   67  A    between atoms: _155  and  _158
REMARK   68  A    between atoms: _158  and  _159
REMARK   69  A    between atoms: _162  and  _164
REMARK   70  A    between atoms: _164  and  _165
REMARK   71  A    between atoms: _164  and  _167
REMARK   72  A    between atoms: _167  and  _168
REMARK   73  A    between atoms: _168  and  _169
REMARK   74  A    between atoms: _174  and  _176
REMARK   75  A    between atoms: _176  and  _177
REMARK   76  A    between atoms: _176  and  _179
REMARK   77  A    between atoms: _179  and  _180
REMARK   78  A    between atoms: _185  and  _186
REMARK   79  A    between atoms: _188  and  _190
REMARK   80  A    between atoms: _190  and  _191
REMARK   81  A    between atoms: _190  and  _193
REMARK   82  A    between atoms: _193  and  _194
REMARK   83  A    between atoms: _196  and  _198
REMARK   84  A    between atoms: _198  and  _199
REMARK   85  A    between atoms: _198  and  _201
REMARK   86  A    between atoms: _201  and  _202
REMARK   87  A    between atoms: _205  and  _207
REMARK   88  A    between atoms: _207  and  _208
REMARK   89  A    between atoms: _207  and  _210
REMARK   90  A    between atoms: _210  and  _211
REMARK   91  A    between atoms: _211  and  _212
REMARK   92  A    between atoms: _214  and  _216
REMARK   93  A    between atoms: _216  and  _217
REMARK   94  A    between atoms: _219  and  _221
REMARK   95  A    between atoms: _221  and  _222
REMARK   96  A    between atoms: _221  and  _224
REMARK   97  A    between atoms: _224  and  _225
REMARK   98  A    between atoms: _228  and  _230
REMARK   99  A    between atoms: _230  and  _231
REMARK  100  A    between atoms: _230  and  _233
REMARK  101  A    between atoms: _233  and  _234
REMARK  102  A    between atoms: _234  and  _235
REMARK  103  A    between atoms: _237  and  _239
REMARK  104  A    between atoms: _239  and  _240
REMARK  105  A    between atoms: _239  and  _242
REMARK  106  A    between atoms: _245  and  _247
REMARK  107  A    between atoms: _247  and  _248
REMARK  108  A    between atoms: _247  and  _250
REMARK  109  A    between atoms: _250  and  _251
REMARK  110  A    between atoms: _257  and  _259
REMARK  111  A    between atoms: _259  and  _260
REMARK  112  A    between atoms: _263  and  _265
REMARK  113  A    between atoms: _265  and  _266
REMARK  114  A    between atoms: _265  and  _268
REMARK  115  A    between atoms: _268  and  _269
REMARK  116  A    between atoms: _269  and  _270
REMARK  117  A    between atoms: _272  and  _274
REMARK  118  A    between atoms: _274  and  _275
REMARK  119  A    between atoms: _277  and  _279
REMARK  120  A    between atoms: _279  and  _280
REMARK  121  A    between atoms: _279  and  _282
REMARK  122  A    between atoms: _282  and  _283
REMARK  123  A    between atoms: _293  and  _295
REMARK  124  A    between atoms: _295  and  _296
REMARK  125  A    between atoms: _295  and  _298
REMARK  126  A    between atoms: _298  and  _299
REMARK  127  A    between atoms: _299  and  _300
REMARK  128  A    between atoms: _300  and  _301
REMARK  129  A    between atoms: _310  and  _312
REMARK  130  A    between atoms: _312  and  _313
REMARK  131  A    between atoms: _312  and  _315
REMARK  132  A    between atoms: _315  and  _316
REMARK  133  A    between atoms: _318  and  _320
REMARK  134  A    between atoms: _320  and  _321
REMARK  135  A    between atoms: _320  and  _323
REMARK  136  A    between atoms: _323  and  _324
REMARK  137  A    between atoms: _327  and  _329
REMARK  138  A    between atoms: _329  and  _330
REMARK  139  A    between atoms: _329  and  _332
REMARK  140  A    between atoms: _332  and  _333
REMARK  141  A    between atoms: _338  and  _339
REMARK  142  A    between atoms: _341  and  _343
REMARK  143  A    between atoms: _343  and  _344
REMARK  144  A    between atoms: _343  and  _346
REMARK  145  A    between atoms: _346  and  _347
REMARK  146  A    between atoms: _353  and  _355
REMARK  147  A    between atoms: _355  and  _356
REMARK  148  A    between atoms: _359  and  _361
REMARK  149  A    between atoms: _361  and  _362
REMARK  150  A    between atoms: _361  and  _364
REMARK  151  A    between atoms: _364  and  _365
REMARK  152  A    between atoms: _368  and  _370
REMARK  153  A    between atoms: _370  and  _371
REMARK  154  A    between atoms: _370  and  _373
REMARK  155  A    between atoms: _373  and  _374
REMARK  156  A    between atoms: _380  and  _382
REMARK  157  A    between atoms: _382  and  _383
REMARK  158  A    between atoms: _382  and  _385
REMARK  159  A    between atoms: _385  and  _386
REMARK  160  A    between atoms: _388  and  _390
REMARK  161  A    between atoms: _390  and  _391
REMARK  162  A    between atoms: _390  and  _393
REMARK  163  A    between atoms: _393  and  _394
REMARK  164  A    between atoms: _394  and  _395
REMARK  165  A    between atoms: _397  and  _399
REMARK  166  A    between atoms: _399  and  _400
REMARK  167  A    between atoms: _399  and  _402
REMARK  168  A    between atoms: _402  and  _403
REMARK  169  A    between atoms: _403  and  _404
REMARK  170  A    between atoms: _409  and  _411
REMARK  171  A    between atoms: _411  and  _412
REMARK  172  A    between atoms: _411  and  _414
REMARK  173  A    between atoms: _416  and  _418
REMARK  174  A    between atoms: _418  and  _419
REMARK  175  A    between atoms: _418  and  _421
REMARK  176  A    between atoms: _421  and  _422
REMARK  177  A    between atoms: _422  and  _423
REMARK  178  A    between atoms: _425  and  _427
REMARK  179  A    between atoms: _427  and  _428
REMARK  180  A    between atoms: _427  and  _430
REMARK  181  A    between atoms: _430  and  _431
REMARK  182  A    between atoms: _434  and  _436
REMARK  183  A    between atoms: _436  and  _437
REMARK  184  A    between atoms: _436  and  _439
REMARK  185  A    between atoms: _439  and  _440
REMARK  186  A    between atoms: _443  and  _445
REMARK  187  A    between atoms: _445  and  _446
REMARK  188  A    between atoms: _445  and  _448
REMARK  189  A    between atoms: _451  and  _453
REMARK  190  A    between atoms: _453  and  _454
REMARK  191  A    between atoms: _453  and  _456
REMARK  192  A    between atoms: _456  and  _457
REMARK  193  A    between atoms: _460  and  _462
REMARK  194  A    between atoms: _462  and  _463
REMARK  195  A    between atoms: _466  and  _468
REMARK  196  A    between atoms: _468  and  _469
REMARK  197  A    between atoms: _468  and  _471
REMARK  198  A    between atoms: _471  and  _472
REMARK  199  A    between atoms: _475  and  _477
REMARK  200  A    between atoms: _477  and  _478
REMARK  201  A    between atoms: _477  and  _480
REMARK  202  A    between atoms: _480  and  _481
REMARK  203  A    between atoms: _486  and  _488
REMARK  204  A    between atoms: _488  and  _489
REMARK  205  A    between atoms: _488  and  _491
REMARK  206  A    between atoms: _491  and  _492
REMARK  207  A    between atoms: _498  and  _500
REMARK  208  A    between atoms: _500  and  _501
REMARK  209  A    between atoms: _500  and  _503
REMARK  210  A    between atoms: _503  and  _504
REMARK  211  A    between atoms: _507  and  _509
REMARK  212  A    between atoms: _509  and  _510
REMARK  213  A    between atoms: _509  and  _512
REMARK  214  A    between atoms: _512  and  _513
REMARK  215  A    between atoms: _519  and  _521
REMARK  216  A    between atoms: _521  and  _522
REMARK  217  A    between atoms: _521  and  _524
REMARK  218  A    between atoms: _524  and  _525
REMARK  219  A    between atoms: _528  and  _530
REMARK  220  A    between atoms: _530  and  _531
REMARK  221  A    between atoms: _530  and  _533
REMARK  222  A    between atoms: _533  and  _534
REMARK  223  A    between atoms: _537  and  _539
REMARK  224  A    between atoms: _539  and  _540
REMARK  225  A    between atoms: _539  and  _542
REMARK  226  A    between atoms: _545  and  _547
REMARK  227  A    between atoms: _547  and  _548
REMARK  228  A    between atoms: _547  and  _550
REMARK  229  A    between atoms: _550  and  _551
REMARK  230  A    between atoms: _554  and  _556
REMARK  231  A    between atoms: _556  and  _557
REMARK  232  A    between atoms: _556  and  _559
REMARK  233  A    between atoms: _559  and  _560
REMARK  234  A    between atoms: _567  and  _568
REMARK  235  A    between atoms: _573  and  _575
REMARK  236  A    between atoms: _575  and  _576
REMARK  237  A    between atoms: _575  and  _578
REMARK  238  A    between atoms: _578  and  _579
REMARK  239  A    between atoms: _579  and  _580
REMARK  240  A    between atoms: _582  and  _584
REMARK  241  A    between atoms: _584  and  _585
REMARK  242  A    between atoms: _584  and  _587
REMARK  243  A    between atoms: _587  and  _588
REMARK  244  A    between atoms: _588  and  _589
REMARK  245  A    between atoms: _591  and  _593
REMARK  246  A    between atoms: _593  and  _594
REMARK  247  A    between atoms: _597  and  _599
REMARK  248  A    between atoms: _599  and  _600
REMARK  249  A    between atoms: _599  and  _602
REMARK  250  A    between atoms: _602  and  _603
REMARK  251  A    between atoms: _603  and  _604
REMARK  252  A    between atoms: _607  and  _609
REMARK  253  A    between atoms: _609  and  _610
REMARK  254  A    between atoms: _609  and  _612
REMARK  255  A    between atoms: _612  and  _613
REMARK  256  A    between atoms: _616  and  _618
REMARK  257  A    between atoms: _618  and  _619
REMARK  258  A    between atoms: _618  and  _621
REMARK  259  A    between atoms: _621  and  _622
REMARK  260  A    between atoms: _625  and  _627
REMARK  261  A    between atoms: _627  and  _628
REMARK  262  A    between atoms: _627  and  _630
REMARK  263  A    between atoms: _630  and  _631
REMARK  264  A    between atoms: _633  and  _635
REMARK  265  A    between atoms: _635  and  _636
REMARK  266  A    between atoms: _635  and  _638
REMARK  267  A    between atoms: _641  and  _643
REMARK  268  A    between atoms: _643  and  _644
REMARK  269  A    between atoms: _643  and  _646
REMARK  270  A    between atoms: _646  and  _647
REMARK  271  A    between atoms: _647  and  _648
REMARK  272  A    between atoms: _653  and  _655
REMARK  273  A    between atoms: _655  and  _656
REMARK  274  A    between atoms: _655  and  _658
REMARK  275  A    between atoms: _662  and  _663
REMARK  276  A    between atoms: _668  and  _670
REMARK  277  A    between atoms: _670  and  _671
REMARK  278  A    between atoms: _670  and  _673
REMARK  279  A    between atoms: _673  and  _674
REMARK                            x       y       z     vdW  Elec       q    Type
REMARK                         _______ _______ _______ _____ _____    ______ ____
ROOT
ATOM      1  CA  VAL A   1      15.532   0.925  11.425  0.00  0.00    +0.133 C 
ENDROOT
BRANCH   1   2
ATOM      2  CB  VAL A   1      16.032   2.257  12.047  0.00  0.00    +0.023 C 
ATOM      3  CG2 VAL A   1      17.507   2.468  11.718  0.00  0.00    +0.002 C 
ATOM      4  CG1 VAL A   1      15.217   3.416  11.520  0.00  0.00    +0.002 C 
ENDBRANCH   1   2
BRANCH   1   5
ATOM      5  N   VAL A   1      14.156   0.643  11.819  0.00  0.00    -0.239 NA
ATOM      6  H   VAL A   1      13.720   1.182  12.594  0.00  0.00    +0.142 HD
ENDBRANCH   1   5
BRANCH   1   7
ATOM      7  C   VAL A   1      16.485  -0.184  11.868  0.00  0.00    +0.224 C 
ATOM      8  O   VAL A   1      17.439  -0.520  11.161  0.00  0.00    -0.287 OA
ENDBRANCH   1   7
TORSDOF 3
REMARK  Name = ../refined-set-2016/1z95/1z95_pocket.pdb
REMARK  279 active torsions:
REMARK  status: ('A' for Active; 'I' for Inactive)
REMARK    1  A    between atoms: _1  and  _3
REMARK    2  A    between atoms: _3  and  _4
REMARK    3  A    between atoms: _3  and  _6
REMARK    4  A    between atoms: _9  and  _11
REMARK    5  A    between atoms: _11  and  _12
REMARK    6  A    between atoms: _15  and  _17
REMARK    7  A    between atoms: _17  and  _18
REMARK    8  A    between atoms: _17  and  _20
REMARK    9  A    between atoms: _20  and  _21
REMARK   10  A    between atoms: _27  and  _29
REMARK   11  A    between atoms: _29  and  _30
REMARK   12  A    between atoms: _29  and  _32
REMARK   13  A    between atoms: _32  and  _33
REMARK   14  A    between atoms: _36  and  _38
REMARK   15  A    between atoms: _38  and  _39
REMARK   16  A    between atoms: _38  and  _41
REMARK   17  A    between atoms: _41  and  _42
REMARK   18  A    between atoms: _45  and  _47
REMARK   19  A    between atoms: _47  and  _48
REMARK   20  A    between atoms: _47  and  _50
REMARK   21  A    between atoms: _50  and  _51
REMARK   22  A    between atoms: _53  and  _55
REMARK   23  A    between atoms: _55  and  _56
REMARK   24  A    between atoms: _55  and  _58
REMARK   25  A    between atoms: _58  and  _59
REMARK   26  A    between atoms: _61  and  _63
REMARK   27  A    between atoms: _63  and  _64
REMARK   28  A    between atoms: _63  and  _66
REMARK   29  A    between atoms: _66  and  _67
REMARK   30  A    between atoms: _70  and  _72
REMARK   31  A    between atoms: _72  and  _73
REMARK   32  A    between atoms: _72  and  _75
REMARK   33  A    between atoms: _75  and  _76
REMARK   34  A    between atoms: _81  and  _83
REMARK   35  A    between atoms: _83  and  _84
REMARK   36  A    between atoms: _83  and  _86
REMARK   37  A    between atoms: _86  and  _87
REMARK   38  A    between atoms: _87  and  _88
REMARK   39  A    between atoms: _91  and  _93
REMARK   40  A    between atoms: _93  and  _94
REMARK   41  A    between atoms: _93  and  _96
REMARK   42  A    between atoms: _96  and  _97
REMARK   43  A    between atoms: _100  and  _102
REMARK   44  A    between atoms: _102  and  _103
REMARK   45  A    between atoms: _105  and  _107
REMARK   46  A    between atoms: _107  and  _108
REMARK   47  A    between atoms: _107  and  _110
REMARK   48  A    between atoms: _110  and  _111
REMARK   49  A    between atoms: _111  and  _112
REMARK   50  A    between atoms: _115  and  _117
REMARK   51  A    between atoms: _117  and  _118
REMARK   52  A    between atoms: _117  and  _120
REMARK   53  A    between atoms: _120  and  _121
REMARK   54  A    between atoms: _121  and  _122
REMARK   55  A    between atoms: _122  and  _123
REMARK   56  A    between atoms: _132  and  _134
REMARK   57  A    between atoms: _134  and  _135
REMARK   58  A    between atoms: _134  and  _137
REMARK   59  A    between atoms: _137  and  _138
REMARK   60  A    between atoms: _138  and  _139
REMARK   61  A    between atoms: _144  and  _146
REMARK   62  A    between atoms: _146  and  _147
REMARK   63  A    between atoms: _146  and  _149
REMARK   64  A    between atoms: _149  and  _150
REMARK   65  A    between atoms: _153  and  _155
REMARK   66  A    between atoms: _155  and  _156
REMARK   67  A    between atoms: _155  and  _158
REMARK   68  A    between atoms: _158  and  _159
REMARK   69  A    between atoms: _162  and  _164
REMARK   70  A    between atoms: _164  and  _165
REMARK   71  A    between atoms: _164  and  _167
REMARK   72  A    between atoms: _167  and  _168
REMARK   73  A    between atoms: _168  and  _169
REMARK   74  A    between atoms: _174  and  _176
REMARK   75  A    between atoms: _176  and  _177
REMARK   76  A    between atoms: _176  and  _179
REMARK   77  A    between atoms: _179  and  _180
REMARK   78  A    between atoms: _185  and  _186
REMARK   79  A    between atoms: _188  and  _190
REMARK   80  A    between atoms: _190  and  _191
REMARK   81  A    between atoms: _190  and  _193
REMARK   82  A    between atoms: _193  and  _194
REMARK   83  A    between atoms: _196  and  _198
REMARK   84  A    between atoms: _198  and  _199
REMARK   85  A    between atoms: _198  and  _201
REMARK   86  A    between atoms: _201  and  _202
REMARK   87  A    between atoms: _205  and  _207
REMARK   88  A    between atoms: _207  and  _208
REMARK   89  A    between atoms: _207  and  _210
REMARK   90  A    between atoms: _210  and  _211
REMARK   91  A    between atoms: _211  and  _212
REMARK   92  A    between atoms: _214  and  _216
REMARK   93  A    between atoms: _216  and  _217
REMARK   94  A    between atoms: _219  and  _221
REMARK   95  A    between atoms: _221  and  _222
REMARK   96  A    between atoms: _221  and  _224
REMARK   97  A    between atoms: _224  and  _225
REMARK   98  A    between atoms: _228  and  _230
REMARK   99  A    between atoms: _230  and  _231
REMARK  100  A    between atoms: _230  and  _233
REMARK  101  A    between atoms: _233  and  _234
REMARK  102  A    between atoms: _234  and  _235
REMARK  103  A    between atoms: _237  and  _239
REMARK  104  A    between atoms: _239  and  _240
REMARK  105  A    between atoms: _239  and  _242
REMARK  106  A    between atoms: _245  and  _247
REMARK  107  A    between atoms: _247  and  _248
REMARK  108  A    between atoms: _247  and  _250
REMARK  109  A    between atoms: _250  and  _251
REMARK  110  A    between atoms: _257  and  _259
REMARK  111  A    between atoms: _259  and  _260
REMARK  112  A    between atoms: _263  and  _265
REMARK  113  A    between atoms: _265  and  _266
REMARK  114  A    between atoms: _265  and  _268
REMARK  115  A    between atoms: _268  and  _269
REMARK  116  A    between atoms: _269  and  _270
REMARK  117  A    between atoms: _272  and  _274
REMARK  118  A    between atoms: _274  and  _275
REMARK  119  A    between atoms: _277  and  _279
REMARK  120  A    between atoms: _279  and  _280
REMARK  121  A    between atoms: _279  and  _282
REMARK  122  A    between atoms: _282  and  _283
REMARK  123  A    between atoms: _293  and  _295
REMARK  124  A    between atoms: _295  and  _296
REMARK  125  A    between atoms: _295  and  _298
REMARK  126  A    between atoms: _298  and  _299
REMARK  127  A    between atoms: _299  and  _300
REMARK  128  A    between atoms: _300  and  _301
REMARK  129  A    between atoms: _310  and  _312
REMARK  130  A    between atoms: _312  and  _313
REMARK  131  A    between atoms: _312  and  _315
REMARK  132  A    between atoms: _315  and  _316
REMARK  133  A    between atoms: _318  and  _320
REMARK  134  A    between atoms: _320  and  _321
REMARK  135  A    between atoms: _320  and  _323
REMARK  136  A    between atoms: _323  and  _324
REMARK  137  A    between atoms: _327  and  _329
REMARK  138  A    between atoms: _329  and  _330
REMARK  139  A    between atoms: _329  and  _332
REMARK  140  A    between atoms: _332  and  _333
REMARK  141  A    between atoms: _338  and  _339
REMARK  142  A    between atoms: _341  and  _343
REMARK  143  A    between atoms: _343  and  _344
REMARK  144  A    between atoms: _343  and  _346
REMARK  145  A    between atoms: _346  and  _347
REMARK  146  A    between atoms: _353  and  _355
REMARK  147  A    between atoms: _355  and  _356
REMARK  148  A    between atoms: _359  and  _361
REMARK  149  A    between atoms: _361  and  _362
REMARK  150  A    between atoms: _361  and  _364
REMARK  151  A    between atoms: _364  and  _365
REMARK  152  A    between atoms: _368  and  _370
REMARK  153  A    between atoms: _370  and  _371
REMARK  154  A    between atoms: _370  and  _373
REMARK  155  A    between atoms: _373  and  _374
REMARK  156  A    between atoms: _380  and  _382
REMARK  157  A    between atoms: _382  and  _383
REMARK  158  A    between atoms: _382  and  _385
REMARK  159  A    between atoms: _385  and  _386
REMARK  160  A    between atoms: _388  and  _390
REMARK  161  A    between atoms: _390  and  _391
REMARK  162  A    between atoms: _390  and  _393
REMARK  163  A    between atoms: _393  and  _394
REMARK  164  A    between atoms: _394  and  _395
REMARK  165  A    between atoms: _397  and  _399
REMARK  166  A    between atoms: _399  and  _400
REMARK  167  A    between atoms: _399  and  _402
REMARK  168  A    between atoms: _402  and  _403
REMARK  169  A    between atoms: _403  and  _404
REMARK  170  A    between atoms: _409  and  _411
REMARK  171  A    between atoms: _411  and  _412
REMARK  172  A    between atoms: _411  and  _414
REMARK  173  A    between atoms: _416  and  _418
REMARK  174  A    between atoms: _418  and  _419
REMARK  175  A    between atoms: _418  and  _421
REMARK  176  A    between atoms: _421  and  _422
REMARK  177  A    between atoms: _422  and  _423
REMARK  178  A    between atoms: _425  and  _427
REMARK  179  A    between atoms: _427  and  _428
REMARK  180  A    between atoms: _427  and  _430
REMARK  181  A    between atoms: _430  and  _431
REMARK  182  A    between atoms: _434  and  _436
REMARK  183  A    between atoms: _436  and  _437
REMARK  184  A    between atoms: _436  and  _439
REMARK  185  A    between atoms: _439  and  _440
REMARK  186  A    between atoms: _443  and  _445
REMARK  187  A    between atoms: _445  and  _446
REMARK  188  A    between atoms: _445  and  _448
REMARK  189  A    between atoms: _451  and  _453
REMARK  190  A    between atoms: _453  and  _454
REMARK  191  A    between atoms: _453  and  _456
REMARK  192  A    between atoms: _456  and  _457
REMARK  193  A    between atoms: _460  and  _462
REMARK  194  A    between atoms: _462  and  _463
REMARK  195  A    between atoms: _466  and  _468
REMARK  196  A    between atoms: _468  and  _469
REMARK  197  A    between atoms: _468  and  _471
REMARK  198  A    between atoms: _471  and  _472
REMARK  199  A    between atoms: _475  and  _477
REMARK  200  A    between atoms: _477  and  _478
REMARK  201  A    between atoms: _477  and  _480
REMARK  202  A    between atoms: _480  and  _481
REMARK  203  A    between atoms: _486  and  _488
REMARK  204  A    between atoms: _488  and  _489
REMARK  205  A    between atoms: _488  and  _491
REMARK  206  A    between atoms: _491  and  _492
REMARK  207  A    between atoms: _498  and  _500
REMARK  208  A    between atoms: _500  and  _501
REMARK  209  A    between atoms: _500  and  _503
REMARK  210  A    between atoms: _503  and  _504
REMARK  211  A    between atoms: _507  and  _509
REMARK  212  A    between atoms: _509  and  _510
REMARK  213  A    between atoms: _509  and  _512
REMARK  214  A    between atoms: _512  and  _513
REMARK  215  A    between atoms: _519  and  _521
REMARK  216  A    between atoms: _521  and  _522
REMARK  217  A    between atoms: _521  and  _524
REMARK  218  A    between atoms: _524  and  _525
REMARK  219  A    between atoms: _528  and  _530
REMARK  220  A    between atoms: _530  and  _531
REMARK  221  A    between atoms: _530  and  _533
REMARK  222  A    between atoms: _533  and  _534
REMARK  223  A    between atoms: _537  and  _539
REMARK  224  A    between atoms: _539  and  _540
REMARK  225  A    between atoms: _539  and  _542
REMARK  226  A    between atoms: _545  and  _547
REMARK  227  A    between atoms: _547  and  _548
REMARK  228  A    between atoms: _547  and  _550
REMARK  229  A    between atoms: _550  and  _551
REMARK  230  A    between atoms: _554  and  _556
REMARK  231  A    between atoms: _556  and  _557
REMARK  232  A    between atoms: _556  and  _559
REMARK  233  A    between atoms: _559  and  _560
REMARK  234  A    between atoms: _567  and  _568
REMARK  235  A    between atoms: _573  and  _575
REMARK  236  A    between atoms: _575  and  _576
REMARK  237  A    between atoms: _575  and  _578
REMARK  238  A    between atoms: _578  and  _579
REMARK  239  A    between atoms: _579  and  _580
REMARK  240  A    between atoms: _582  and  _584
REMARK  241  A    between atoms: _584  and  _585
REMARK  242  A    between atoms: _584  and  _587
REMARK  243  A    between atoms: _587  and  _588
REMARK  244  A    between atoms: _588  and  _589
REMARK  245  A    between atoms: _591  and  _593
REMARK  246  A    between atoms: _593  and  _594
REMARK  247  A    between atoms: _597  and  _599
REMARK  248  A    between atoms: _599  and  _600
REMARK  249  A    between atoms: _599  and  _602
REMARK  250  A    between atoms: _602  and  _603
REMARK  251  A    between atoms: _603  and  _604
REMARK  252  A    between atoms: _607  and  _609
REMARK  253  A    between atoms: _609  and  _610
REMARK  254  A    between atoms: _609  and  _612
REMARK  255  A    between atoms: _612  and  _613
REMARK  256  A    between atoms: _616  and  _618
REMARK  257  A    between atoms: _618  and  _619
REMARK  258  A    between atoms: _618  and  _621
REMARK  259  A    between atoms: _621  and  _622
REMARK  260  A    between atoms: _625  and  _627
REMARK  261  A    between atoms: _627  and  _628
REMARK  262  A    between atoms: _627  and  _630
REMARK  263  A    between atoms: _630  and  _631
REMARK  264  A    between atoms: _633  and  _635
REMARK  265  A    between atoms: _635  and  _636
REMARK  266  A    between atoms: _635  and  _638
REMARK  267  A    between atoms: _641  and  _643
REMARK  268  A    between atoms: _643  and  _644
REMARK  269  A    between atoms: _643  and  _646
REMARK  270  A    between atoms: _646  and  _647
REMARK  271  A    between atoms: _647  and  _648
REMARK  272  A    between atoms: _653  and  _655
REMARK  273  A    between atoms: _655  and  _656
REMARK  274  A    between atoms: _655  and  _658
REMARK  275  A    between atoms: _662  and  _663
REMARK  276  A    between atoms: _668  and  _670
REMARK  277  A    between atoms: _670  and  _671
REMARK  278  A    between atoms: _670  and  _673
REMARK  279  A    between atoms: _673  and  _674
REMARK                            x       y       z     vdW  Elec       q    Type
REMARK                         _______ _______ _______ _____ _____    ______ ____
ROOT
ATOM      1  C   ILE A   1      19.374  -2.744   8.851  0.00  0.00    +0.238 C 
ATOM      2  N   ALA A   2      19.628  -2.022   9.938  0.00  0.00    -0.298 N 
ATOM      3  H   ALA A   2      18.834  -1.598  10.459  0.00  0.00    +0.150 HD
ATOM      4  O   ILE A   1      20.254  -3.271   8.170  0.00  0.00    -0.274 OA
ENDROOT
BRANCH   2   5
ATOM      5  CA  ALA A   2      20.991  -1.806  10.423  0.00  0.00    +0.137 C 
ATOM      6  CB  ALA A   2      20.962  -0.993  11.722  0.00  0.00    +0.030 C 
BRANCH   5   7
ATOM      7  C   ALA A   2      21.679  -3.150  10.664  0.00  0.00    +0.227 C 
ATOM      8  O   ALA A   2      22.857  -3.329  10.340  0.00  0.00    -0.286 OA
ENDBRANCH   5   7
ENDBRANCH   2   5
BRANCH   1   9
ATOM      9  CA  ILE A   1      17.904  -2.895   8.471  0.00  0.00    +0.145 C 
BRANCH   9  10
ATOM     10  N   ILE A   1      17.116  -3.313   9.625  0.00  0.00    -0.238 NA
ATOM     11  H   ILE A   1      16.406  -2.666  10.023  0.00  0.00    +0.142 HD
ENDBRANCH   9  10
BRANCH   9  12
ATOM     12  CB  ILE A   1      17.402  -1.558   7.893  0.00  0.00    +0.025 C 
ATOM     13  CG2 ILE A   1      18.366  -1.068   6.816  0.00  0.00    +0.002 C 
BRANCH  12  14
ATOM     14  CG1 ILE A   1      15.990  -1.740   7.329  0.00  0.00    +0.002 C 
ATOM     15  CD1 ILE A   1      15.320  -0.452   6.885  0.00  0.00    +0.000 C 
ENDBRANCH  12  14
ENDBRANCH   9  12
ENDBRANCH   1   9
TORSDOF 6
REMARK  Name = ../refined-set-2016/1z95/1z95_pocket.pdb
REMARK  279 active torsions:
REMARK  status: ('A' for Active; 'I' for Inactive)
REMARK    1  A    between atoms: _1  and  _3
REMARK    2  A    between atoms: _3  and  _4
REMARK    3  A    between atoms: _3  and  _6
REMARK    4  A    between atoms: _9  and  _11
REMARK    5  A    between atoms: _11  and  _12
REMARK    6  A    between atoms: _15  and  _17
REMARK    7  A    between atoms: _17  and  _18
REMARK    8  A    between atoms: _17  and  _20
REMARK    9  A    between atoms: _20  and  _21
REMARK   10  A    between atoms: _27  and  _29
REMARK   11  A    between atoms: _29  and  _30
REMARK   12  A    between atoms: _29  and  _32
REMARK   13  A    between atoms: _32  and  _33
REMARK   14  A    between atoms: _36  and  _38
REMARK   15  A    between atoms: _38  and  _39
REMARK   16  A    between atoms: _38  and  _41
REMARK   17  A    between atoms: _41  and  _42
REMARK   18  A    between atoms: _45  and  _47
REMARK   19  A    between atoms: _47  and  _48
REMARK   20  A    between atoms: _47  and  _50
REMARK   21  A    between atoms: _50  and  _51
REMARK   22  A    between atoms: _53  and  _55
REMARK   23  A    between atoms: _55  and  _56
REMARK   24  A    between atoms: _55  and  _58
REMARK   25  A    between atoms: _58  and  _59
REMARK   26  A    between atoms: _61  and  _63
REMARK   27  A    between atoms: _63  and  _64
REMARK   28  A    between atoms: _63  and  _66
REMARK   29  A    between atoms: _66  and  _67
REMARK   30  A    between atoms: _70  and  _72
REMARK   31  A    between atoms: _72  and  _73
REMARK   32  A    between atoms: _72  and  _75
REMARK   33  A    between atoms: _75  and  _76
REMARK   34  A    between atoms: _81  and  _83
REMARK   35  A    between atoms: _83  and  _84
REMARK   36  A    between atoms: _83  and  _86
REMARK   37  A    between atoms: _86  and  _87
REMARK   38  A    between atoms: _87  and  _88
REMARK   39  A    between atoms: _91  and  _93
REMARK   40  A    between atoms: _93  and  _94
REMARK   41  A    between atoms: _93  and  _96
REMARK   42  A    between atoms: _96  and  _97
REMARK   43  A    between atoms: _100  and  _102
REMARK   44  A    between atoms: _102  and  _103
REMARK   45  A    between atoms: _105  and  _107
REMARK   46  A    between atoms: _107  and  _108
REMARK   47  A    between atoms: _107  and  _110
REMARK   48  A    between atoms: _110  and  _111
REMARK   49  A    between atoms: _111  and  _112
REMARK   50  A    between atoms: _115  and  _117
REMARK   51  A    between atoms: _117  and  _118
REMARK   52  A    between atoms: _117  and  _120
REMARK   53  A    between atoms: _120  and  _121
REMARK   54  A    between atoms: _121  and  _122
REMARK   55  A    between atoms: _122  and  _123
REMARK   56  A    between atoms: _132  and  _134
REMARK   57  A    between atoms: _134  and  _135
REMARK   58  A    between atoms: _134  and  _137
REMARK   59  A    between atoms: _137  and  _138
REMARK   60  A    between atoms: _138  and  _139
REMARK   61  A    between atoms: _144  and  _146
REMARK   62  A    between atoms: _146  and  _147
REMARK   63  A    between atoms: _146  and  _149
REMARK   64  A    between atoms: _149  and  _150
REMARK   65  A    between atoms: _153  and  _155
REMARK   66  A    between atoms: _155  and  _156
REMARK   67  A    between atoms: _155  and  _158
REMARK   68  A    between atoms: _158  and  _159
REMARK   69  A    between atoms: _162  and  _164
REMARK   70  A    between atoms: _164  and  _165
REMARK   71  A    between atoms: _164  and  _167
REMARK   72  A    between atoms: _167  and  _168
REMARK   73  A    between atoms: _168  and  _169
REMARK   74  A    between atoms: _174  and  _176
REMARK   75  A    between atoms: _176  and  _177
REMARK   76  A    between atoms: _176  and  _179
REMARK   77  A    between atoms: _179  and  _180
REMARK   78  A    between atoms: _185  and  _186
REMARK   79  A    between atoms: _188  and  _190
REMARK   80  A    between atoms: _190  and  _191
REMARK   81  A    between atoms: _190  and  _193
REMARK   82  A    between atoms: _193  and  _194
REMARK   83  A    between atoms: _196  and  _198
REMARK   84  A    between atoms: _198  and  _199
REMARK   85  A    between atoms: _198  and  _201
REMARK   86  A    between atoms: _201  and  _202
REMARK   87  A    between atoms: _205  and  _207
REMARK   88  A    between atoms: _207  and  _208
REMARK   89  A    between atoms: _207  and  _210
REMARK   90  A    between atoms: _210  and  _211
REMARK   91  A    between atoms: _211  and  _212
REMARK   92  A    between atoms: _214  and  _216
REMARK   93  A    between atoms: _216  and  _217
REMARK   94  A    between atoms: _219  and  _221
REMARK   95  A    between atoms: _221  and  _222
REMARK   96  A    between atoms: _221  and  _224
REMARK   97  A    between atoms: _224  and  _225
REMARK   98  A    between atoms: _228  and  _230
REMARK   99  A    between atoms: _230  and  _231
REMARK  100  A    between atoms: _230  and  _233
REMARK  101  A    between atoms: _233  and  _234
REMARK  102  A    between atoms: _234  and  _235
REMARK  103  A    between atoms: _237  and  _239
REMARK  104  A    between atoms: _239  and  _240
REMARK  105  A    between atoms: _239  and  _242
REMARK  106  A    between atoms: _245  and  _247
REMARK  107  A    between atoms: _247  and  _248
REMARK  108  A    between atoms: _247  and  _250
REMARK  109  A    between atoms: _250  and  _251
REMARK  110  A    between atoms: _257  and  _259
REMARK  111  A    between atoms: _259  and  _260
REMARK  112  A    between atoms: _263  and  _265
REMARK  113  A    between atoms: _265  and  _266
REMARK  114  A    between atoms: _265  and  _268
REMARK  115  A    between atoms: _268  and  _269
REMARK  116  A    between atoms: _269  and  _270
REMARK  117  A    between atoms: _272  and  _274
REMARK  118  A    between atoms: _274  and  _275
REMARK  119  A    between atoms: _277  and  _279
REMARK  120  A    between atoms: _279  and  _280
REMARK  121  A    between atoms: _279  and  _282
REMARK  122  A    between atoms: _282  and  _283
REMARK  123  A    between atoms: _293  and  _295
REMARK  124  A    between atoms: _295  and  _296
REMARK  125  A    between atoms: _295  and  _298
REMARK  126  A    between atoms: _298  and  _299
REMARK  127  A    between atoms: _299  and  _300
REMARK  128  A    between atoms: _300  and  _301
REMARK  129  A    between atoms: _310  and  _312
REMARK  130  A    between atoms: _312  and  _313
REMARK  131  A    between atoms: _312  and  _315
REMARK  132  A    between atoms: _315  and  _316
REMARK  133  A    between atoms: _318  and  _320
REMARK  134  A    between atoms: _320  and  _321
REMARK  135  A    between atoms: _320  and  _323
REMARK  136  A    between atoms: _323  and  _324
REMARK  137  A    between atoms: _327  and  _329
REMARK  138  A    between atoms: _329  and  _330
REMARK  139  A    between atoms: _329  and  _332
REMARK  140  A    between atoms: _332  and  _333
REMARK  141  A    between atoms: _338  and  _339
REMARK  142  A    between atoms: _341  and  _343
REMARK  143  A    between atoms: _343  and  _344
REMARK  144  A    between atoms: _343  and  _346
REMARK  145  A    between atoms: _346  and  _347
REMARK  146  A    between atoms: _353  and  _355
REMARK  147  A    between atoms: _355  and  _356
REMARK  148  A    between atoms: _359  and  _361
REMARK  149  A    between atoms: _361  and  _362
REMARK  150  A    between atoms: _361  and  _364
REMARK  151  A    between atoms: _364  and  _365
REMARK  152  A    between atoms: _368  and  _370
REMARK  153  A    between atoms: _370  and  _371
REMARK  154  A    between atoms: _370  and  _373
REMARK  155  A    between atoms: _373  and  _374
REMARK  156  A    between atoms: _380  and  _382
REMARK  157  A    between atoms: _382  and  _383
REMARK  158  A    between atoms: _382  and  _385
REMARK  159  A    between atoms: _385  and  _386
REMARK  160  A    between atoms: _388  and  _390
REMARK  161  A    between atoms: _390  and  _391
REMARK  162  A    between atoms: _390  and  _393
REMARK  163  A    between atoms: _393  and  _394
REMARK  164  A    between atoms: _394  and  _395
REMARK  165  A    between atoms: _397  and  _399
REMARK  166  A    between atoms: _399  and  _400
REMARK  167  A    between atoms: _399  and  _402
REMARK  168  A    between atoms: _402  and  _403
REMARK  169  A    between atoms: _403  and  _404
REMARK  170  A    between atoms: _409  and  _411
REMARK  171  A    between atoms: _411  and  _412
REMARK  172  A    between atoms: _411  and  _414
REMARK  173  A    between atoms: _416  and  _418
REMARK  174  A    between atoms: _418  and  _419
REMARK  175  A    between atoms: _418  and  _421
REMARK  176  A    between atoms: _421  and  _422
REMARK  177  A    between atoms: _422  and  _423
REMARK  178  A    between atoms: _425  and  _427
REMARK  179  A    between atoms: _427  and  _428
REMARK  180  A    between atoms: _427  and  _430
REMARK  181  A    between atoms: _430  and  _431
REMARK  182  A    between atoms: _434  and  _436
REMARK  183  A    between atoms: _436  and  _437
REMARK  184  A    between atoms: _436  and  _439
REMARK  185  A    between atoms: _439  and  _440
REMARK  186  A    between atoms: _443  and  _445
REMARK  187  A    between atoms: _445  and  _446
REMARK  188  A    between atoms: _445  and  _448
REMARK  189  A    between atoms: _451  and  _453
REMARK  190  A    between atoms: _453  and  _454
REMARK  191  A    between atoms: _453  and  _456
REMARK  192  A    between atoms: _456  and  _457
REMARK  193  A    between atoms: _460  and  _462
REMARK  194  A    between atoms: _462  and  _463
REMARK  195  A    between atoms: _466  and  _468
REMARK  196  A    between atoms: _468  and  _469
REMARK  197  A    between atoms: _468  and  _471
REMARK  198  A    between atoms: _471  and  _472
REMARK  199  A    between atoms: _475  and  _477
REMARK  200  A    between atoms: _477  and  _478
REMARK  201  A    between atoms: _477  and  _480
REMARK  202  A    between atoms: _480  and  _481
REMARK  203  A    between atoms: _486  and  _488
REMARK  204  A    between atoms: _488  and  _489
REMARK  205  A    between atoms: _488  and  _491
REMARK  206  A    between atoms: _491  and  _492
REMARK  207  A    between atoms: _498  and  _500
REMARK  208  A    between atoms: _500  and  _501
REMARK  209  A    between atoms: _500  and  _503
REMARK  210  A    between atoms: _503  and  _504
REMARK  211  A    between atoms: _507  and  _509
REMARK  212  A    between atoms: _509  and  _510
REMARK  213  A    between atoms: _509  and  _512
REMARK  214  A    between atoms: _512  and  _513
REMARK  215  A    between atoms: _519  and  _521
REMARK  216  A    between atoms: _521  and  _522
REMARK  217  A    between atoms: _521  and  _524
REMARK  218  A    between atoms: _524  and  _525
REMARK  219  A    between atoms: _528  and  _530
REMARK  220  A    between atoms: _530  and  _531
REMARK  221  A    between atoms: _530  and  _533
REMARK  222  A    between atoms: _533  and  _534
REMARK  223  A    between atoms: _537  and  _539
REMARK  224  A    between atoms: _539  and  _540
REMARK  225  A    between atoms: _539  and  _542
REMARK  226  A    between atoms: _545  and  _547
REMARK  227  A    between atoms: _547  and  _548
REMARK  228  A    between atoms: _547  and  _550
REMARK  229  A    between atoms: _550  and  _551
REMARK  230  A    between atoms: _554  and  _556
REMARK  231  A    between atoms: _556  and  _557
REMARK  232  A    between atoms: _556  and  _559
REMARK  233  A    between atoms: _559  and  _560
REMARK  234  A    between atoms: _567  and  _568
REMARK  235  A    between atoms: _573  and  _575
REMARK  236  A    between atoms: _575  and  _576
REMARK  237  A    between atoms: _575  and  _578
REMARK  238  A    between atoms: _578  and  _579
REMARK  239  A    between atoms: _579  and  _580
REMARK  240  A    between atoms: _582  and  _584
REMARK  241  A    between atoms: _584  and  _585
REMARK  242  A    between atoms: _584  and  _587
REMARK  243  A    between atoms: _587  and  _588
REMARK  244  A    between atoms: _588  and  _589
REMARK  245  A    between atoms: _591  and  _593
REMARK  246  A    between atoms: _593  and  _594
REMARK  247  A    between atoms: _597  and  _599
REMARK  248  A    between atoms: _599  and  _600
REMARK  249  A    between atoms: _599  and  _602
REMARK  250  A    between atoms: _602  and  _603
REMARK  251  A    between atoms: _603  and  _604
REMARK  252  A    between atoms: _607  and  _609
REMARK  253  A    between atoms: _609  and  _610
REMARK  254  A    between atoms: _609  and  _612
REMARK  255  A    between atoms: _612  and  _613
REMARK  256  A    between atoms: _616  and  _618
REMARK  257  A    between atoms: _618  and  _619
REMARK  258  A    between atoms: _618  and  _621
REMARK  259  A    between atoms: _621  and  _622
REMARK  260  A    between atoms: _625  and  _627
REMARK  261  A    between atoms: _627  and  _628
REMARK  262  A    between atoms: _627  and  _630
REMARK  263  A    between atoms: _630  and  _631
REMARK  264  A    between atoms: _633  and  _635
REMARK  265  A    between atoms: _635  and  _636
REMARK  266  A    between atoms: _635  and  _638
REMARK  267  A    between atoms: _641  and  _643
REMARK  268  A    between atoms: _643  and  _644
REMARK  269  A    between atoms: _643  and  _646
REMARK  270  A    between atoms: _646  and  _647
REMARK  271  A    between atoms: _647  and  _648
REMARK  272  A    between atoms: _653  and  _655
REMARK  273  A    between atoms: _655  and  _656
REMARK  274  A    between atoms: _655  and  _658
REMARK  275  A    between atoms: _662  and  _663
REMARK  276  A    between atoms: _668  and  _670
REMARK  277  A    between atoms: _670  and  _671
REMARK  278  A    between atoms: _670  and  _673
REMARK  279  A    between atoms: _673  and  _674
REMARK                            x       y       z     vdW  Elec       q    Type
REMARK                         _______ _______ _______ _____ _____    ______ ____
ROOT
ATOM      1  C   LEU A   1      25.293  -4.375   7.856  0.00  0.00    +0.238 C 
ATOM      2  N   HIS A   2      25.079  -4.542   9.157  0.00  0.00    -0.298 N 
ATOM      3  H   HIS A   2      24.118  -4.404   9.531  0.00  0.00    +0.150 HD
ATOM      4  O   LEU A   1      26.400  -4.493   7.345  0.00  0.00    -0.274 OA
ENDROOT
BRANCH   1   5
ATOM      5  CA  LEU A   1      24.074  -4.009   7.008  0.00  0.00    +0.145 C 
BRANCH   5   6
ATOM      6  N   LEU A   1      22.905  -4.738   7.483  0.00  0.00    -0.238 NA
ATOM      7  H   LEU A   1      22.122  -4.213   7.922  0.00  0.00    +0.142 HD
ENDBRANCH   5   6
BRANCH   5   8
ATOM      8  CB  LEU A   1      23.812  -2.503   7.085  0.00  0.00    +0.026 C 
BRANCH   8   9
ATOM      9  CG  LEU A   1      22.776  -1.999   6.075  0.00  0.00    +0.002 C 
ATOM     10  CD2 LEU A   1      22.457  -0.535   6.329  0.00  0.00    +0.000 C 
ATOM     11  CD1 LEU A   1      23.314  -2.192   4.675  0.00  0.00    +0.000 C 
ENDBRANCH   8   9
ENDBRANCH   5   8
ENDBRANCH   1   5
BRANCH   2  12
ATOM     12  CA  HIS A   2      26.148  -4.912  10.077  0.00  0.00    +0.143 C 
BRANCH  12  13
ATOM     13  C   HIS A   2      26.710  -6.277   9.688  0.00  0.00    +0.227 C 
ATOM     14  O   HIS A   2      27.929  -6.472   9.635  0.00  0.00    -0.286 OA
ENDBRANCH  12  13
BRANCH  12  15
ATOM     15  CB  HIS A   2      25.601  -4.982  11.505  0.00  0.00    +0.075 C 
BRANCH  15  16
ATOM     16  CG  HIS A   2      25.620  -3.674  12.229  0.00  0.00    +0.082 A 
ATOM     17  ND1 HIS A   2      24.689  -3.347  13.192  0.00  0.00    -0.227 NA
ATOM     18  CE1 HIS A   2      24.996  -2.174  13.719  0.00  0.00    +0.199 A 
ATOM     19  NE2 HIS A   2      26.091  -1.727  13.128  0.00  0.00    -0.221 NA
ATOM     20  CD2 HIS A   2      26.498  -2.642  12.188  0.00  0.00    +0.115 A 
ENDBRANCH  15  16
ENDBRANCH  12  15
ENDBRANCH   2  12
TORSDOF 8
REMARK  Name = ../refined-set-2016/1z95/1z95_pocket.pdb
REMARK  279 active torsions:
REMARK  status: ('A' for Active; 'I' for Inactive)
REMARK    1  A    between atoms: _1  and  _3
REMARK    2  A    between atoms: _3  and  _4
REMARK    3  A    between atoms: _3  and  _6
REMARK    4  A    between atoms: _9  and  _11
REMARK    5  A    between atoms: _11  and  _12
REMARK    6  A    between atoms: _15  and  _17
REMARK    7  A    between atoms: _17  and  _18
REMARK    8  A    between atoms: _17  and  _20
REMARK    9  A    between atoms: _20  and  _21
REMARK   10  A    between atoms: _27  and  _29
REMARK   11  A    between atoms: _29  and  _30
REMARK   12  A    between atoms: _29  and  _32
REMARK   13  A    between atoms: _32  and  _33
REMARK   14  A    between atoms: _36  and  _38
REMARK   15  A    between atoms: _38  and  _39
REMARK   16  A    between atoms: _38  and  _41
REMARK   17  A    between atoms: _41  and  _42
REMARK   18  A    between atoms: _45  and  _47
REMARK   19  A    between atoms: _47  and  _48
REMARK   20  A    between atoms: _47  and  _50
REMARK   21  A    between atoms: _50  and  _51
REMARK   22  A    between atoms: _53  and  _55
REMARK   23  A    between atoms: _55  and  _56
REMARK   24  A    between atoms: _55  and  _58
REMARK   25  A    between atoms: _58  and  _59
REMARK   26  A    between atoms: _61  and  _63
REMARK   27  A    between atoms: _63  and  _64
REMARK   28  A    between atoms: _63  and  _66
REMARK   29  A    between atoms: _66  and  _67
REMARK   30  A    between atoms: _70  and  _72
REMARK   31  A    between atoms: _72  and  _73
REMARK   32  A    between atoms: _72  and  _75
REMARK   33  A    between atoms: _75  and  _76
REMARK   34  A    between atoms: _81  and  _83
REMARK   35  A    between atoms: _83  and  _84
REMARK   36  A    between atoms: _83  and  _86
REMARK   37  A    between atoms: _86  and  _87
REMARK   38  A    between atoms: _87  and  _88
REMARK   39  A    between atoms: _91  and  _93
REMARK   40  A    between atoms: _93  and  _94
REMARK   41  A    between atoms: _93  and  _96
REMARK   42  A    between atoms: _96  and  _97
REMARK   43  A    between atoms: _100  and  _102
REMARK   44  A    between atoms: _102  and  _103
REMARK   45  A    between atoms: _105  and  _107
REMARK   46  A    between atoms: _107  and  _108
REMARK   47  A    between atoms: _107  and  _110
REMARK   48  A    between atoms: _110  and  _111
REMARK   49  A    between atoms: _111  and  _112
REMARK   50  A    between atoms: _115  and  _117
REMARK   51  A    between atoms: _117  and  _118
REMARK   52  A    between atoms: _117  and  _120
REMARK   53  A    between atoms: _120  and  _121
REMARK   54  A    between atoms: _121  and  _122
REMARK   55  A    between atoms: _122  and  _123
REMARK   56  A    between atoms: _132  and  _134
REMARK   57  A    between atoms: _134  and  _135
REMARK   58  A    between atoms: _134  and  _137
REMARK   59  A    between atoms: _137  and  _138
REMARK   60  A    between atoms: _138  and  _139
REMARK   61  A    between atoms: _144  and  _146
REMARK   62  A    between atoms: _146  and  _147
REMARK   63  A    between atoms: _146  and  _149
REMARK   64  A    between atoms: _149  and  _150
REMARK   65  A    between atoms: _153  and  _155
REMARK   66  A    between atoms: _155  and  _156
REMARK   67  A    between atoms: _155  and  _158
REMARK   68  A    between atoms: _158  and  _159
REMARK   69  A    between atoms: _162  and  _164
REMARK   70  A    between atoms: _164  and  _165
REMARK   71  A    between atoms: _164  and  _167
REMARK   72  A    between atoms: _167  and  _168
REMARK   73  A    between atoms: _168  and  _169
REMARK   74  A    between atoms: _174  and  _176
REMARK   75  A    between atoms: _176  and  _177
REMARK   76  A    between atoms: _176  and  _179
REMARK   77  A    between atoms: _179  and  _180
REMARK   78  A    between atoms: _185  and  _186
REMARK   79  A    between atoms: _188  and  _190
REMARK   80  A    between atoms: _190  and  _191
REMARK   81  A    between atoms: _190  and  _193
REMARK   82  A    between atoms: _193  and  _194
REMARK   83  A    between atoms: _196  and  _198
REMARK   84  A    between atoms: _198  and  _199
REMARK   85  A    between atoms: _198  and  _201
REMARK   86  A    between atoms: _201  and  _202
REMARK   87  A    between atoms: _205  and  _207
REMARK   88  A    between atoms: _207  and  _208
REMARK   89  A    between atoms: _207  and  _210
REMARK   90  A    between atoms: _210  and  _211
REMARK   91  A    between atoms: _211  and  _212
REMARK   92  A    between atoms: _214  and  _216
REMARK   93  A    between atoms: _216  and  _217
REMARK   94  A    between atoms: _219  and  _221
REMARK   95  A    between atoms: _221  and  _222
REMARK   96  A    between atoms: _221  and  _224
REMARK   97  A    between atoms: _224  and  _225
REMARK   98  A    between atoms: _228  and  _230
REMARK   99  A    between atoms: _230  and  _231
REMARK  100  A    between atoms: _230  and  _233
REMARK  101  A    between atoms: _233  and  _234
REMARK  102  A    between atoms: _234  and  _235
REMARK  103  A    between atoms: _237  and  _239
REMARK  104  A    between atoms: _239  and  _240
REMARK  105  A    between atoms: _239  and  _242
REMARK  106  A    between atoms: _245  and  _247
REMARK  107  A    between atoms: _247  and  _248
REMARK  108  A    between atoms: _247  and  _250
REMARK  109  A    between atoms: _250  and  _251
REMARK  110  A    between atoms: _257  and  _259
REMARK  111  A    between atoms: _259  and  _260
REMARK  112  A    between atoms: _263  and  _265
REMARK  113  A    between atoms: _265  and  _266
REMARK  114  A    between atoms: _265  and  _268
REMARK  115  A    between atoms: _268  and  _269
REMARK  116  A    between atoms: _269  and  _270
REMARK  117  A    between atoms: _272  and  _274
REMARK  118  A    between atoms: _274  and  _275
REMARK  119  A    between atoms: _277  and  _279
REMARK  120  A    between atoms: _279  and  _280
REMARK  121  A    between atoms: _279  and  _282
REMARK  122  A    between atoms: _282  and  _283
REMARK  123  A    between atoms: _293  and  _295
REMARK  124  A    between atoms: _295  and  _296
REMARK  125  A    between atoms: _295  and  _298
REMARK  126  A    between atoms: _298  and  _299
REMARK  127  A    between atoms: _299  and  _300
REMARK  128  A    between atoms: _300  and  _301
REMARK  129  A    between atoms: _310  and  _312
REMARK  130  A    between atoms: _312  and  _313
REMARK  131  A    between atoms: _312  and  _315
REMARK  132  A    between atoms: _315  and  _316
REMARK  133  A    between atoms: _318  and  _320
REMARK  134  A    between atoms: _320  and  _321
REMARK  135  A    between atoms: _320  and  _323
REMARK  136  A    between atoms: _323  and  _324
REMARK  137  A    between atoms: _327  and  _329
REMARK  138  A    between atoms: _329  and  _330
REMARK  139  A    between atoms: _329  and  _332
REMARK  140  A    between atoms: _332  and  _333
REMARK  141  A    between atoms: _338  and  _339
REMARK  142  A    between atoms: _341  and  _343
REMARK  143  A    between atoms: _343  and  _344
REMARK  144  A    between atoms: _343  and  _346
REMARK  145  A    between atoms: _346  and  _347
REMARK  146  A    between atoms: _353  and  _355
REMARK  147  A    between atoms: _355  and  _356
REMARK  148  A    between atoms: _359  and  _361
REMARK  149  A    between atoms: _361  and  _362
REMARK  150  A    between atoms: _361  and  _364
REMARK  151  A    between atoms: _364  and  _365
REMARK  152  A    between atoms: _368  and  _370
REMARK  153  A    between atoms: _370  and  _371
REMARK  154  A    between atoms: _370  and  _373
REMARK  155  A    between atoms: _373  and  _374
REMARK  156  A    between atoms: _380  and  _382
REMARK  157  A    between atoms: _382  and  _383
REMARK  158  A    between atoms: _382  and  _385
REMARK  159  A    between atoms: _385  and  _386
REMARK  160  A    between atoms: _388  and  _390
REMARK  161  A    between atoms: _390  and  _391
REMARK  162  A    between atoms: _390  and  _393
REMARK  163  A    between atoms: _393  and  _394
REMARK  164  A    between atoms: _394  and  _395
REMARK  165  A    between atoms: _397  and  _399
REMARK  166  A    between atoms: _399  and  _400
REMARK  167  A    between atoms: _399  and  _402
REMARK  168  A    between atoms: _402  and  _403
REMARK  169  A    between atoms: _403  and  _404
REMARK  170  A    between atoms: _409  and  _411
REMARK  171  A    between atoms: _411  and  _412
REMARK  172  A    between atoms: _411  and  _414
REMARK  173  A    between atoms: _416  and  _418
REMARK  174  A    between atoms: _418  and  _419
REMARK  175  A    between atoms: _418  and  _421
REMARK  176  A    between atoms: _421  and  _422
REMARK  177  A    between atoms: _422  and  _423
REMARK  178  A    between atoms: _425  and  _427
REMARK  179  A    between atoms: _427  and  _428
REMARK  180  A    between atoms: _427  and  _430
REMARK  181  A    between atoms: _430  and  _431
REMARK  182  A    between atoms: _434  and  _436
REMARK  183  A    between atoms: _436  and  _437
REMARK  184  A    between atoms: _436  and  _439
REMARK  185  A    between atoms: _439  and  _440
REMARK  186  A    between atoms: _443  and  _445
REMARK  187  A    between atoms: _445  and  _446
REMARK  188  A    between atoms: _445  and  _448
REMARK  189  A    between atoms: _451  and  _453
REMARK  190  A    between atoms: _453  and  _454
REMARK  191  A    between atoms: _453  and  _456
REMARK  192  A    between atoms: _456  and  _457
REMARK  193  A    between atoms: _460  and  _462
REMARK  194  A    between atoms: _462  and  _463
REMARK  195  A    between atoms: _466  and  _468
REMARK  196  A    between atoms: _468  and  _469
REMARK  197  A    between atoms: _468  and  _471
REMARK  198  A    between atoms: _471  and  _472
REMARK  199  A    between atoms: _475  and  _477
REMARK  200  A    between atoms: _477  and  _478
REMARK  201  A    between atoms: _477  and  _480
REMARK  202  A    between atoms: _480  and  _481
REMARK  203  A    between atoms: _486  and  _488
REMARK  204  A    between atoms: _488  and  _489
REMARK  205  A    between atoms: _488  and  _491
REMARK  206  A    between atoms: _491  and  _492
REMARK  207  A    between atoms: _498  and  _500
REMARK  208  A    between atoms: _500  and  _501
REMARK  209  A    between atoms: _500  and  _503
REMARK  210  A    between atoms: _503  and  _504
REMARK  211  A    between atoms: _507  and  _509
REMARK  212  A    between atoms: _509  and  _510
REMARK  213  A    between atoms: _509  and  _512
REMARK  214  A    between atoms: _512  and  _513
REMARK  215  A    between atoms: _519  and  _521
REMARK  216  A    between atoms: _521  and  _522
REMARK  217  A    between atoms: _521  and  _524
REMARK  218  A    between atoms: _524  and  _525
REMARK  219  A    between atoms: _528  and  _530
REMARK  220  A    between atoms: _530  and  _531
REMARK  221  A    between atoms: _530  and  _533
REMARK  222  A    between atoms: _533  and  _534
REMARK  223  A    between atoms: _537  and  _539
REMARK  224  A    between atoms: _539  and  _540
REMARK  225  A    between atoms: _539  and  _542
REMARK  226  A    between atoms: _545  and  _547
REMARK  227  A    between atoms: _547  and  _548
REMARK  228  A    between atoms: _547  and  _550
REMARK  229  A    between atoms: _550  and  _551
REMARK  230  A    between atoms: _554  and  _556
REMARK  231  A    between atoms: _556  and  _557
REMARK  232  A    between atoms: _556  and  _559
REMARK  233  A    between atoms: _559  and  _560
REMARK  234  A    between atoms: _567  and  _568
REMARK  235  A    between atoms: _573  and  _575
REMARK  236  A    between atoms: _575  and  _576
REMARK  237  A    between atoms: _575  and  _578
REMARK  238  A    between atoms: _578  and  _579
REMARK  239  A    between atoms: _579  and  _580
REMARK  240  A    between atoms: _582  and  _584
REMARK  241  A    between atoms: _584  and  _585
REMARK  242  A    between atoms: _584  and  _587
REMARK  243  A    between atoms: _587  and  _588
REMARK  244  A    between atoms: _588  and  _589
REMARK  245  A    between atoms: _591  and  _593
REMARK  246  A    between atoms: _593  and  _594
REMARK  247  A    between atoms: _597  and  _599
REMARK  248  A    between atoms: _599  and  _600
REMARK  249  A    between atoms: _599  and  _602
REMARK  250  A    between atoms: _602  and  _603
REMARK  251  A    between atoms: _603  and  _604
REMARK  252  A    between atoms: _607  and  _609
REMARK  253  A    between atoms: _609  and  _610
REMARK  254  A    between atoms: _609  and  _612
REMARK  255  A    between atoms: _612  and  _613
REMARK  256  A    between atoms: _616  and  _618
REMARK  257  A    between atoms: _618  and  _619
REMARK  258  A    between atoms: _618  and  _621
REMARK  259  A    between atoms: _621  and  _622
REMARK  260  A    between atoms: _625  and  _627
REMARK  261  A    between atoms: _627  and  _628
REMARK  262  A    between atoms: _627  and  _630
REMARK  263  A    between atoms: _630  and  _631
REMARK  264  A    between atoms: _633  and  _635
REMARK  265  A    between atoms: _635  and  _636
REMARK  266  A    between atoms: _635  and  _638
REMARK  267  A    between atoms: _641  and  _643
REMARK  268  A    between atoms: _643  and  _644
REMARK  269  A    between atoms: _643  and  _646
REMARK  270  A    between atoms: _646  and  _647
REMARK  271  A    between atoms: _647  and  _648
REMARK  272  A    between atoms: _653  and  _655
REMARK  273  A    between atoms: _655  and  _656
REMARK  274  A    between atoms: _655  and  _658
REMARK  275  A    between atoms: _662  and  _663
REMARK  276  A    between atoms: _668  and  _670
REMARK  277  A    between atoms: _670  and  _671
REMARK  278  A    between atoms: _670  and  _673
REMARK  279  A    between atoms: _673  and  _674
REMARK                            x       y       z     vdW  Elec       q    Type
REMARK                         _______ _______ _______ _____ _____    ______ ____
ROOT
ATOM      1  CA  THR A   2      29.775  -5.252   6.522  0.00  0.00    +0.176 C 
ENDROOT
BRANCH   1   3
ATOM      2  C   PHE A   1      28.444  -7.051   5.531  0.00  0.00    +0.239 C 
ATOM      3  N   THR A   2      28.528  -5.985   6.321  0.00  0.00    -0.295 N 
ATOM      4  H   THR A   2      27.672  -5.660   6.815  0.00  0.00    +0.150 HD
ATOM      5  O   PHE A   1      29.408  -7.510   4.915  0.00  0.00    -0.274 OA
BRANCH   2   6
ATOM      6  CA  PHE A   1      27.064  -7.705   5.428  0.00  0.00    +0.149 C 
BRANCH   6   7
ATOM      7  N   PHE A   1      26.440  -7.828   6.737  0.00  0.00    -0.238 NA
ATOM      8  H   PHE A   1      25.545  -7.330   6.916  0.00  0.00    +0.142 HD
ENDBRANCH   6   7
BRANCH   6   9
ATOM      9  CB  PHE A   1      26.139  -6.896   4.506  0.00  0.00    +0.053 C 
BRANCH   9  10
ATOM     10  CG  PHE A   1      26.780  -6.458   3.219  0.00  0.00    -0.020 A 
ATOM     11  CD2 PHE A   1      27.547  -5.298   3.168  0.00  0.00    -0.004 A 
ATOM     12  CE2 PHE A   1      28.143  -4.888   1.978  0.00  0.00    -0.000 A 
ATOM     13  CZ  PHE A   1      27.973  -5.642   0.822  0.00  0.00    -0.000 A 
ATOM     14  CE1 PHE A   1      27.209  -6.803   0.861  0.00  0.00    -0.000 A 
ATOM     15  CD1 PHE A   1      26.617  -7.205   2.056  0.00  0.00    -0.004 A 
ENDBRANCH   9  10
ENDBRANCH   6   9
ENDBRANCH   2   6
ENDBRANCH   1   3
BRANCH   1  16
ATOM     16  C   THR A   2      30.847  -6.120   7.180  0.00  0.00    +0.243 C 
ATOM     17  N   PHE A   3      30.438  -6.891   8.178  0.00  0.00    -0.298 N 
ATOM     18  H   PHE A   3      29.441  -6.858   8.471  0.00  0.00    +0.150 HD
ATOM     19  O   THR A   2      32.020  -6.075   6.807  0.00  0.00    -0.273 OA
BRANCH  17  20
ATOM     20  CA  PHE A   3      31.357  -7.784   8.874  0.00  0.00    +0.141 C 
BRANCH  20  21
ATOM     21  C   PHE A   3      31.918  -8.820   7.906  0.00  0.00    +0.227 C 
ATOM     22  O   PHE A   3      33.130  -8.997   7.806  0.00  0.00    -0.286 OA
ENDBRANCH  20  21
BRANCH  20  23
ATOM     23  CB  PHE A   3      30.640  -8.512  10.008  0.00  0.00    +0.054 C 
BRANCH  23  24
ATOM     24  CG  PHE A   3      31.500  -9.536  10.702  0.00  0.00    -0.020 A 
ATOM     25  CD2 PHE A   3      32.547  -9.135  11.525  0.00  0.00    -0.004 A 
ATOM     26  CE2 PHE A   3      33.373 -10.075  12.142  0.00  0.00    -0.000 A 
ATOM     27  CZ  PHE A   3      33.151 -11.433  11.937  0.00  0.00    -0.000 A 
ATOM     28  CE1 PHE A   3      32.101 -11.850  11.115  0.00  0.00    -0.000 A 
ATOM     29  CD1 PHE A   3      31.283 -10.899  10.503  0.00  0.00    -0.004 A 
ENDBRANCH  23  24
ENDBRANCH  20  23
ENDBRANCH  17  20
ENDBRANCH   1  16
BRANCH   1  30
ATOM     30  CB  THR A   2      29.537  -4.008   7.401  0.00  0.00    +0.137 C 
ATOM     31  CG2 THR A   2      30.852  -3.276   7.656  0.00  0.00    +0.034 C 
BRANCH  30  32
ATOM     32  OG1 THR A   2      28.618  -3.126   6.738  0.00  0.00    -0.382 OA
ATOM     33  HG1 THR A   2      27.760  -3.596   6.590  0.00  0.00    +0.210 HD
ENDBRANCH  30  32
ENDBRANCH   1  30
TORSDOF 12
REMARK  Name = ../refined-set-2016/1z95/1z95_pocket.pdb
REMARK  279 active torsions:
REMARK  status: ('A' for Active; 'I' for Inactive)
REMARK    1  A    between atoms: _1  and  _3
REMARK    2  A    between atoms: _3  and  _4
REMARK    3  A    between atoms: _3  and  _6
REMARK    4  A    between atoms: _9  and  _11
REMARK    5  A    between atoms: _11  and  _12
REMARK    6  A    between atoms: _15  and  _17
REMARK    7  A    between atoms: _17  and  _18
REMARK    8  A    between atoms: _17  and  _20
REMARK    9  A    between atoms: _20  and  _21
REMARK   10  A    between atoms: _27  and  _29
REMARK   11  A    between atoms: _29  and  _30
REMARK   12  A    between atoms: _29  and  _32
REMARK   13  A    between atoms: _32  and  _33
REMARK   14  A    between atoms: _36  and  _38
REMARK   15  A    between atoms: _38  and  _39
REMARK   16  A    between atoms: _38  and  _41
REMARK   17  A    between atoms: _41  and  _42
REMARK   18  A    between atoms: _45  and  _47
REMARK   19  A    between atoms: _47  and  _48
REMARK   20  A    between atoms: _47  and  _50
REMARK   21  A    between atoms: _50  and  _51
REMARK   22  A    between atoms: _53  and  _55
REMARK   23  A    between atoms: _55  and  _56
REMARK   24  A    between atoms: _55  and  _58
REMARK   25  A    between atoms: _58  and  _59
REMARK   26  A    between atoms: _61  and  _63
REMARK   27  A    between atoms: _63  and  _64
REMARK   28  A    between atoms: _63  and  _66
REMARK   29  A    between atoms: _66  and  _67
REMARK   30  A    between atoms: _70  and  _72
REMARK   31  A    between atoms: _72  and  _73
REMARK   32  A    between atoms: _72  and  _75
REMARK   33  A    between atoms: _75  and  _76
REMARK   34  A    between atoms: _81  and  _83
REMARK   35  A    between atoms: _83  and  _84
REMARK   36  A    between atoms: _83  and  _86
REMARK   37  A    between atoms: _86  and  _87
REMARK   38  A    between atoms: _87  and  _88
REMARK   39  A    between atoms: _91  and  _93
REMARK   40  A    between atoms: _93  and  _94
REMARK   41  A    between atoms: _93  and  _96
REMARK   42  A    between atoms: _96  and  _97
REMARK   43  A    between atoms: _100  and  _102
REMARK   44  A    between atoms: _102  and  _103
REMARK   45  A    between atoms: _105  and  _107
REMARK   46  A    between atoms: _107  and  _108
REMARK   47  A    between atoms: _107  and  _110
REMARK   48  A    between atoms: _110  and  _111
REMARK   49  A    between atoms: _111  and  _112
REMARK   50  A    between atoms: _115  and  _117
REMARK   51  A    between atoms: _117  and  _118
REMARK   52  A    between atoms: _117  and  _120
REMARK   53  A    between atoms: _120  and  _121
REMARK   54  A    between atoms: _121  and  _122
REMARK   55  A    between atoms: _122  and  _123
REMARK   56  A    between atoms: _132  and  _134
REMARK   57  A    between atoms: _134  and  _135
REMARK   58  A    between atoms: _134  and  _137
REMARK   59  A    between atoms: _137  and  _138
REMARK   60  A    between atoms: _138  and  _139
REMARK   61  A    between atoms: _144  and  _146
REMARK   62  A    between atoms: _146  and  _147
REMARK   63  A    between atoms: _146  and  _149
REMARK   64  A    between atoms: _149  and  _150
REMARK   65  A    between atoms: _153  and  _155
REMARK   66  A    between atoms: _155  and  _156
REMARK   67  A    between atoms: _155  and  _158
REMARK   68  A    between atoms: _158  and  _159
REMARK   69  A    between atoms: _162  and  _164
REMARK   70  A    between atoms: _164  and  _165
REMARK   71  A    between atoms: _164  and  _167
REMARK   72  A    between atoms: _167  and  _168
REMARK   73  A    between atoms: _168  and  _169
REMARK   74  A    between atoms: _174  and  _176
REMARK   75  A    between atoms: _176  and  _177
REMARK   76  A    between atoms: _176  and  _179
REMARK   77  A    between atoms: _179  and  _180
REMARK   78  A    between atoms: _185  and  _186
REMARK   79  A    between atoms: _188  and  _190
REMARK   80  A    between atoms: _190  and  _191
REMARK   81  A    between atoms: _190  and  _193
REMARK   82  A    between atoms: _193  and  _194
REMARK   83  A    between atoms: _196  and  _198
REMARK   84  A    between atoms: _198  and  _199
REMARK   85  A    between atoms: _198  and  _201
REMARK   86  A    between atoms: _201  and  _202
REMARK   87  A    between atoms: _205  and  _207
REMARK   88  A    between atoms: _207  and  _208
REMARK   89  A    between atoms: _207  and  _210
REMARK   90  A    between atoms: _210  and  _211
REMARK   91  A    between atoms: _211  and  _212
REMARK   92  A    between atoms: _214  and  _216
REMARK   93  A    between atoms: _216  and  _217
REMARK   94  A    between atoms: _219  and  _221
REMARK   95  A    between atoms: _221  and  _222
REMARK   96  A    between atoms: _221  and  _224
REMARK   97  A    between atoms: _224  and  _225
REMARK   98  A    between atoms: _228  and  _230
REMARK   99  A    between atoms: _230  and  _231
REMARK  100  A    between atoms: _230  and  _233
REMARK  101  A    between atoms: _233  and  _234
REMARK  102  A    between atoms: _234  and  _235
REMARK  103  A    between atoms: _237  and  _239
REMARK  104  A    between atoms: _239  and  _240
REMARK  105  A    between atoms: _239  and  _242
REMARK  106  A    between atoms: _245  and  _247
REMARK  107  A    between atoms: _247  and  _248
REMARK  108  A    between atoms: _247  and  _250
REMARK  109  A    between atoms: _250  and  _251
REMARK  110  A    between atoms: _257  and  _259
REMARK  111  A    between atoms: _259  and  _260
REMARK  112  A    between atoms: _263  and  _265
REMARK  113  A    between atoms: _265  and  _266
REMARK  114  A    between atoms: _265  and  _268
REMARK  115  A    between atoms: _268  and  _269
REMARK  116  A    between atoms: _269  and  _270
REMARK  117  A    between atoms: _272  and  _274
REMARK  118  A    between atoms: _274  and  _275
REMARK  119  A    between atoms: _277  and  _279
REMARK  120  A    between atoms: _279  and  _280
REMARK  121  A    between atoms: _279  and  _282
REMARK  122  A    between atoms: _282  and  _283
REMARK  123  A    between atoms: _293  and  _295
REMARK  124  A    between atoms: _295  and  _296
REMARK  125  A    between atoms: _295  and  _298
REMARK  126  A    between atoms: _298  and  _299
REMARK  127  A    between atoms: _299  and  _300
REMARK  128  A    between atoms: _300  and  _301
REMARK  129  A    between atoms: _310  and  _312
REMARK  130  A    between atoms: _312  and  _313
REMARK  131  A    between atoms: _312  and  _315
REMARK  132  A    between atoms: _315  and  _316
REMARK  133  A    between atoms: _318  and  _320
REMARK  134  A    between atoms: _320  and  _321
REMARK  135  A    between atoms: _320  and  _323
REMARK  136  A    between atoms: _323  and  _324
REMARK  137  A    between atoms: _327  and  _329
REMARK  138  A    between atoms: _329  and  _330
REMARK  139  A    between atoms: _329  and  _332
REMARK  140  A    between atoms: _332  and  _333
REMARK  141  A    between atoms: _338  and  _339
REMARK  142  A    between atoms: _341  and  _343
REMARK  143  A    between atoms: _343  and  _344
REMARK  144  A    between atoms: _343  and  _346
REMARK  145  A    between atoms: _346  and  _347
REMARK  146  A    between atoms: _353  and  _355
REMARK  147  A    between atoms: _355  and  _356
REMARK  148  A    between atoms: _359  and  _361
REMARK  149  A    between atoms: _361  and  _362
REMARK  150  A    between atoms: _361  and  _364
REMARK  151  A    between atoms: _364  and  _365
REMARK  152  A    between atoms: _368  and  _370
REMARK  153  A    between atoms: _370  and  _371
REMARK  154  A    between atoms: _370  and  _373
REMARK  155  A    between atoms: _373  and  _374
REMARK  156  A    between atoms: _380  and  _382
REMARK  157  A    between atoms: _382  and  _383
REMARK  158  A    between atoms: _382  and  _385
REMARK  159  A    between atoms: _385  and  _386
REMARK  160  A    between atoms: _388  and  _390
REMARK  161  A    between atoms: _390  and  _391
REMARK  162  A    between atoms: _390  and  _393
REMARK  163  A    between atoms: _393  and  _394
REMARK  164  A    between atoms: _394  and  _395
REMARK  165  A    between atoms: _397  and  _399
REMARK  166  A    between atoms: _399  and  _400
REMARK  167  A    between atoms: _399  and  _402
REMARK  168  A    between atoms: _402  and  _403
REMARK  169  A    between atoms: _403  and  _404
REMARK  170  A    between atoms: _409  and  _411
REMARK  171  A    between atoms: _411  and  _412
REMARK  172  A    between atoms: _411  and  _414
REMARK  173  A    between atoms: _416  and  _418
REMARK  174  A    between atoms: _418  and  _419
REMARK  175  A    between atoms: _418  and  _421
REMARK  176  A    between atoms: _421  and  _422
REMARK  177  A    between atoms: _422  and  _423
REMARK  178  A    between atoms: _425  and  _427
REMARK  179  A    between atoms: _427  and  _428
REMARK  180  A    between atoms: _427  and  _430
REMARK  181  A    between atoms: _430  and  _431
REMARK  182  A    between atoms: _434  and  _436
REMARK  183  A    between atoms: _436  and  _437
REMARK  184  A    between atoms: _436  and  _439
REMARK  185  A    between atoms: _439  and  _440
REMARK  186  A    between atoms: _443  and  _445
REMARK  187  A    between atoms: _445  and  _446
REMARK  188  A    between atoms: _445  and  _448
REMARK  189  A    between atoms: _451  and  _453
REMARK  190  A    between atoms: _453  and  _454
REMARK  191  A    between atoms: _453  and  _456
REMARK  192  A    between atoms: _456  and  _457
REMARK  193  A    between atoms: _460  and  _462
REMARK  194  A    between atoms: _462  and  _463
REMARK  195  A    between atoms: _466  and  _468
REMARK  196  A    between atoms: _468  and  _469
REMARK  197  A    between atoms: _468  and  _471
REMARK  198  A    between atoms: _471  and  _472
REMARK  199  A    between atoms: _475  and  _477
REMARK  200  A    between atoms: _477  and  _478
REMARK  201  A    between atoms: _477  and  _480
REMARK  202  A    between atoms: _480  and  _481
REMARK  203  A    between atoms: _486  and  _488
REMARK  204  A    between atoms: _488  and  _489
REMARK  205  A    between atoms: _488  and  _491
REMARK  206  A    between atoms: _491  and  _492
REMARK  207  A    between atoms: _498  and  _500
REMARK  208  A    between atoms: _500  and  _501
REMARK  209  A    between atoms: _500  and  _503
REMARK  210  A    between atoms: _503  and  _504
REMARK  211  A    between atoms: _507  and  _509
REMARK  212  A    between atoms: _509  and  _510
REMARK  213  A    between atoms: _509  and  _512
REMARK  214  A    between atoms: _512  and  _513
REMARK  215  A    between atoms: _519  and  _521
REMARK  216  A    between atoms: _521  and  _522
REMARK  217  A    between atoms: _521  and  _524
REMARK  218  A    between atoms: _524  and  _525
REMARK  219  A    between atoms: _528  and  _530
REMARK  220  A    between atoms: _530  and  _531
REMARK  221  A    between atoms: _530  and  _533
REMARK  222  A    between atoms: _533  and  _534
REMARK  223  A    between atoms: _537  and  _539
REMARK  224  A    between atoms: _539  and  _540
REMARK  225  A    between atoms: _539  and  _542
REMARK  226  A    between atoms: _545  and  _547
REMARK  227  A    between atoms: _547  and  _548
REMARK  228  A    between atoms: _547  and  _550
REMARK  229  A    between atoms: _550  and  _551
REMARK  230  A    between atoms: _554  and  _556
REMARK  231  A    between atoms: _556  and  _557
REMARK  232  A    between atoms: _556  and  _559
REMARK  233  A    between atoms: _559  and  _560
REMARK  234  A    between atoms: _567  and  _568
REMARK  235  A    between atoms: _573  and  _575
REMARK  236  A    between atoms: _575  and  _576
REMARK  237  A    between atoms: _575  and  _578
REMARK  238  A    between atoms: _578  and  _579
REMARK  239  A    between atoms: _579  and  _580
REMARK  240  A    between atoms: _582  and  _584
REMARK  241  A    between atoms: _584  and  _585
REMARK  242  A    between atoms: _584  and  _587
REMARK  243  A    between atoms: _587  and  _588
REMARK  244  A    between atoms: _588  and  _589
REMARK  245  A    between atoms: _591  and  _593
REMARK  246  A    between atoms: _593  and  _594
REMARK  247  A    between atoms: _597  and  _599
REMARK  248  A    between atoms: _599  and  _600
REMARK  249  A    between atoms: _599  and  _602
REMARK  250  A    between atoms: _602  and  _603
REMARK  251  A    between atoms: _603  and  _604
REMARK  252  A    between atoms: _607  and  _609
REMARK  253  A    between atoms: _609  and  _610
REMARK  254  A    between atoms: _609  and  _612
REMARK  255  A    between atoms: _612  and  _613
REMARK  256  A    between atoms: _616  and  _618
REMARK  257  A    between atoms: _618  and  _619
REMARK  258  A    between atoms: _618  and  _621
REMARK  259  A    between atoms: _621  and  _622
REMARK  260  A    between atoms: _625  and  _627
REMARK  261  A    between atoms: _627  and  _628
REMARK  262  A    between atoms: _627  and  _630
REMARK  263  A    between atoms: _630  and  _631
REMARK  264  A    between atoms: _633  and  _635
REMARK  265  A    between atoms: _635  and  _636
REMARK  266  A    between atoms: _635  and  _638
REMARK  267  A    between atoms: _641  and  _643
REMARK  268  A    between atoms: _643  and  _644
REMARK  269  A    between atoms: _643  and  _646
REMARK  270  A    between atoms: _646  and  _647
REMARK  271  A    between atoms: _647  and  _648
REMARK  272  A    between atoms: _653  and  _655
REMARK  273  A    between atoms: _655  and  _656
REMARK  274  A    between atoms: _655  and  _658
REMARK  275  A    between atoms: _662  and  _663
REMARK  276  A    between atoms: _668  and  _670
REMARK  277  A    between atoms: _670  and  _671
REMARK  278  A    between atoms: _670  and  _673
REMARK  279  A    between atoms: _673  and  _674
REMARK                            x       y       z     vdW  Elec       q    Type
REMARK                         _______ _______ _______ _____ _____    ______ ____
ROOT
ATOM      1  C   LEU A   1      34.287  -7.739   4.256  0.00  0.00    +0.238 C 
ATOM      2  N   LEU A   2      34.393  -7.268   5.492  0.00  0.00    -0.298 N 
ATOM      3  H   LEU A   2      33.539  -7.125   6.068  0.00  0.00    +0.150 HD
ATOM      4  O   LEU A   1      35.264  -7.924   3.534  0.00  0.00    -0.274 OA
ENDROOT
BRANCH   1   5
ATOM      5  CA  LEU A   1      32.881  -8.047   3.756  0.00  0.00    +0.145 C 
BRANCH   5   6
ATOM      6  N   LEU A   1      32.068  -8.713   4.766  0.00  0.00    -0.238 NA
ATOM      7  H   LEU A   1      31.223  -8.239   5.143  0.00  0.00    +0.142 HD
ENDBRANCH   5   6
BRANCH   5   8
ATOM      8  CB  LEU A   1      32.211  -6.756   3.291  0.00  0.00    +0.026 C 
BRANCH   8   9
ATOM      9  CG  LEU A   1      32.950  -6.098   2.125  0.00  0.00    +0.002 C 
ATOM     10  CD2 LEU A   1      32.253  -4.810   1.739  0.00  0.00    +0.000 C 
ATOM     11  CD1 LEU A   1      32.999  -7.068   0.936  0.00  0.00    +0.000 C 
ENDBRANCH   8   9
ENDBRANCH   5   8
ENDBRANCH   1   5
BRANCH   2  12
ATOM     12  CA  LEU A   2      35.702  -6.951   6.043  0.00  0.00    +0.137 C 
BRANCH  12  13
ATOM     13  C   LEU A   2      36.562  -8.206   6.074  0.00  0.00    +0.227 C 
ATOM     14  O   LEU A   2      37.715  -8.194   5.636  0.00  0.00    -0.286 OA
ENDBRANCH  12  13
BRANCH  12  15
ATOM     15  CB  LEU A   2      35.578  -6.397   7.462  0.00  0.00    +0.028 C 
BRANCH  15  16
ATOM     16  CG  LEU A   2      36.951  -6.144   8.099  0.00  0.00    +0.002 C 
ATOM     17  CD2 LEU A   2      36.794  -5.885   9.587  0.00  0.00    +0.000 C 
ATOM     18  CD1 LEU A   2      37.632  -4.964   7.403  0.00  0.00    +0.000 C 
ENDBRANCH  15  16
ENDBRANCH  12  15
ENDBRANCH   2  12
TORSDOF 8
REMARK  Name = ../refined-set-2016/1z95/1z95_pocket.pdb
REMARK  279 active torsions:
REMARK  status: ('A' for Active; 'I' for Inactive)
REMARK    1  A    between atoms: _1  and  _3
REMARK    2  A    between atoms: _3  and  _4
REMARK    3  A    between atoms: _3  and  _6
REMARK    4  A    between atoms: _9  and  _11
REMARK    5  A    between atoms: _11  and  _12
REMARK    6  A    between atoms: _15  and  _17
REMARK    7  A    between atoms: _17  and  _18
REMARK    8  A    between atoms: _17  and  _20
REMARK    9  A    between atoms: _20  and  _21
REMARK   10  A    between atoms: _27  and  _29
REMARK   11  A    between atoms: _29  and  _30
REMARK   12  A    between atoms: _29  and  _32
REMARK   13  A    between atoms: _32  and  _33
REMARK   14  A    between atoms: _36  and  _38
REMARK   15  A    between atoms: _38  and  _39
REMARK   16  A    between atoms: _38  and  _41
REMARK   17  A    between atoms: _41  and  _42
REMARK   18  A    between atoms: _45  and  _47
REMARK   19  A    between atoms: _47  and  _48
REMARK   20  A    between atoms: _47  and  _50
REMARK   21  A    between atoms: _50  and  _51
REMARK   22  A    between atoms: _53  and  _55
REMARK   23  A    between atoms: _55  and  _56
REMARK   24  A    between atoms: _55  and  _58
REMARK   25  A    between atoms: _58  and  _59
REMARK   26  A    between atoms: _61  and  _63
REMARK   27  A    between atoms: _63  and  _64
REMARK   28  A    between atoms: _63  and  _66
REMARK   29  A    between atoms: _66  and  _67
REMARK   30  A    between atoms: _70  and  _72
REMARK   31  A    between atoms: _72  and  _73
REMARK   32  A    between atoms: _72  and  _75
REMARK   33  A    between atoms: _75  and  _76
REMARK   34  A    between atoms: _81  and  _83
REMARK   35  A    between atoms: _83  and  _84
REMARK   36  A    between atoms: _83  and  _86
REMARK   37  A    between atoms: _86  and  _87
REMARK   38  A    between atoms: _87  and  _88
REMARK   39  A    between atoms: _91  and  _93
REMARK   40  A    between atoms: _93  and  _94
REMARK   41  A    between atoms: _93  and  _96
REMARK   42  A    between atoms: _96  and  _97
REMARK   43  A    between atoms: _100  and  _102
REMARK   44  A    between atoms: _102  and  _103
REMARK   45  A    between atoms: _105  and  _107
REMARK   46  A    between atoms: _107  and  _108
REMARK   47  A    between atoms: _107  and  _110
REMARK   48  A    between atoms: _110  and  _111
REMARK   49  A    between atoms: _111  and  _112
REMARK   50  A    between atoms: _115  and  _117
REMARK   51  A    between atoms: _117  and  _118
REMARK   52  A    between atoms: _117  and  _120
REMARK   53  A    between atoms: _120  and  _121
REMARK   54  A    between atoms: _121  and  _122
REMARK   55  A    between atoms: _122  and  _123
REMARK   56  A    between atoms: _132  and  _134
REMARK   57  A    between atoms: _134  and  _135
REMARK   58  A    between atoms: _134  and  _137
REMARK   59  A    between atoms: _137  and  _138
REMARK   60  A    between atoms: _138  and  _139
REMARK   61  A    between atoms: _144  and  _146
REMARK   62  A    between atoms: _146  and  _147
REMARK   63  A    between atoms: _146  and  _149
REMARK   64  A    between atoms: _149  and  _150
REMARK   65  A    between atoms: _153  and  _155
REMARK   66  A    between atoms: _155  and  _156
REMARK   67  A    between atoms: _155  and  _158
REMARK   68  A    between atoms: _158  and  _159
REMARK   69  A    between atoms: _162  and  _164
REMARK   70  A    between atoms: _164  and  _165
REMARK   71  A    between atoms: _164  and  _167
REMARK   72  A    between atoms: _167  and  _168
REMARK   73  A    between atoms: _168  and  _169
REMARK   74  A    between atoms: _174  and  _176
REMARK   75  A    between atoms: _176  and  _177
REMARK   76  A    between atoms: _176  and  _179
REMARK   77  A    between atoms: _179  and  _180
REMARK   78  A    between atoms: _185  and  _186
REMARK   79  A    between atoms: _188  and  _190
REMARK   80  A    between atoms: _190  and  _191
REMARK   81  A    between atoms: _190  and  _193
REMARK   82  A    between atoms: _193  and  _194
REMARK   83  A    between atoms: _196  and  _198
REMARK   84  A    between atoms: _198  and  _199
REMARK   85  A    between atoms: _198  and  _201
REMARK   86  A    between atoms: _201  and  _202
REMARK   87  A    between atoms: _205  and  _207
REMARK   88  A    between atoms: _207  and  _208
REMARK   89  A    between atoms: _207  and  _210
REMARK   90  A    between atoms: _210  and  _211
REMARK   91  A    between atoms: _211  and  _212
REMARK   92  A    between atoms: _214  and  _216
REMARK   93  A    between atoms: _216  and  _217
REMARK   94  A    between atoms: _219  and  _221
REMARK   95  A    between atoms: _221  and  _222
REMARK   96  A    between atoms: _221  and  _224
REMARK   97  A    between atoms: _224  and  _225
REMARK   98  A    between atoms: _228  and  _230
REMARK   99  A    between atoms: _230  and  _231
REMARK  100  A    between atoms: _230  and  _233
REMARK  101  A    between atoms: _233  and  _234
REMARK  102  A    between atoms: _234  and  _235
REMARK  103  A    between atoms: _237  and  _239
REMARK  104  A    between atoms: _239  and  _240
REMARK  105  A    between atoms: _239  and  _242
REMARK  106  A    between atoms: _245  and  _247
REMARK  107  A    between atoms: _247  and  _248
REMARK  108  A    between atoms: _247  and  _250
REMARK  109  A    between atoms: _250  and  _251
REMARK  110  A    between atoms: _257  and  _259
REMARK  111  A    between atoms: _259  and  _260
REMARK  112  A    between atoms: _263  and  _265
REMARK  113  A    between atoms: _265  and  _266
REMARK  114  A    between atoms: _265  and  _268
REMARK  115  A    between atoms: _268  and  _269
REMARK  116  A    between atoms: _269  and  _270
REMARK  117  A    between atoms: _272  and  _274
REMARK  118  A    between atoms: _274  and  _275
REMARK  119  A    between atoms: _277  and  _279
REMARK  120  A    between atoms: _279  and  _280
REMARK  121  A    between atoms: _279  and  _282
REMARK  122  A    between atoms: _282  and  _283
REMARK  123  A    between atoms: _293  and  _295
REMARK  124  A    between atoms: _295  and  _296
REMARK  125  A    between atoms: _295  and  _298
REMARK  126  A    between atoms: _298  and  _299
REMARK  127  A    between atoms: _299  and  _300
REMARK  128  A    between atoms: _300  and  _301
REMARK  129  A    between atoms: _310  and  _312
REMARK  130  A    between atoms: _312  and  _313
REMARK  131  A    between atoms: _312  and  _315
REMARK  132  A    between atoms: _315  and  _316
REMARK  133  A    between atoms: _318  and  _320
REMARK  134  A    between atoms: _320  and  _321
REMARK  135  A    between atoms: _320  and  _323
REMARK  136  A    between atoms: _323  and  _324
REMARK  137  A    between atoms: _327  and  _329
REMARK  138  A    between atoms: _329  and  _330
REMARK  139  A    between atoms: _329  and  _332
REMARK  140  A    between atoms: _332  and  _333
REMARK  141  A    between atoms: _338  and  _339
REMARK  142  A    between atoms: _341  and  _343
REMARK  143  A    between atoms: _343  and  _344
REMARK  144  A    between atoms: _343  and  _346
REMARK  145  A    between atoms: _346  and  _347
REMARK  146  A    between atoms: _353  and  _355
REMARK  147  A    between atoms: _355  and  _356
REMARK  148  A    between atoms: _359  and  _361
REMARK  149  A    between atoms: _361  and  _362
REMARK  150  A    between atoms: _361  and  _364
REMARK  151  A    between atoms: _364  and  _365
REMARK  152  A    between atoms: _368  and  _370
REMARK  153  A    between atoms: _370  and  _371
REMARK  154  A    between atoms: _370  and  _373
REMARK  155  A    between atoms: _373  and  _374
REMARK  156  A    between atoms: _380  and  _382
REMARK  157  A    between atoms: _382  and  _383
REMARK  158  A    between atoms: _382  and  _385
REMARK  159  A    between atoms: _385  and  _386
REMARK  160  A    between atoms: _388  and  _390
REMARK  161  A    between atoms: _390  and  _391
REMARK  162  A    between atoms: _390  and  _393
REMARK  163  A    between atoms: _393  and  _394
REMARK  164  A    between atoms: _394  and  _395
REMARK  165  A    between atoms: _397  and  _399
REMARK  166  A    between atoms: _399  and  _400
REMARK  167  A    between atoms: _399  and  _402
REMARK  168  A    between atoms: _402  and  _403
REMARK  169  A    between atoms: _403  and  _404
REMARK  170  A    between atoms: _409  and  _411
REMARK  171  A    between atoms: _411  and  _412
REMARK  172  A    between atoms: _411  and  _414
REMARK  173  A    between atoms: _416  and  _418
REMARK  174  A    between atoms: _418  and  _419
REMARK  175  A    between atoms: _418  and  _421
REMARK  176  A    between atoms: _421  and  _422
REMARK  177  A    between atoms: _422  and  _423
REMARK  178  A    between atoms: _425  and  _427
REMARK  179  A    between atoms: _427  and  _428
REMARK  180  A    between atoms: _427  and  _430
REMARK  181  A    between atoms: _430  and  _431
REMARK  182  A    between atoms: _434  and  _436
REMARK  183  A    between atoms: _436  and  _437
REMARK  184  A    between atoms: _436  and  _439
REMARK  185  A    between atoms: _439  and  _440
REMARK  186  A    between atoms: _443  and  _445
REMARK  187  A    between atoms: _445  and  _446
REMARK  188  A    between atoms: _445  and  _448
REMARK  189  A    between atoms: _451  and  _453
REMARK  190  A    between atoms: _453  and  _454
REMARK  191  A    between atoms: _453  and  _456
REMARK  192  A    between atoms: _456  and  _457
REMARK  193  A    between atoms: _460  and  _462
REMARK  194  A    between atoms: _462  and  _463
REMARK  195  A    between atoms: _466  and  _468
REMARK  196  A    between atoms: _468  and  _469
REMARK  197  A    between atoms: _468  and  _471
REMARK  198  A    between atoms: _471  and  _472
REMARK  199  A    between atoms: _475  and  _477
REMARK  200  A    between atoms: _477  and  _478
REMARK  201  A    between atoms: _477  and  _480
REMARK  202  A    between atoms: _480  and  _481
REMARK  203  A    between atoms: _486  and  _488
REMARK  204  A    between atoms: _488  and  _489
REMARK  205  A    between atoms: _488  and  _491
REMARK  206  A    between atoms: _491  and  _492
REMARK  207  A    between atoms: _498  and  _500
REMARK  208  A    between atoms: _500  and  _501
REMARK  209  A    between atoms: _500  and  _503
REMARK  210  A    between atoms: _503  and  _504
REMARK  211  A    between atoms: _507  and  _509
REMARK  212  A    between atoms: _509  and  _510
REMARK  213  A    between atoms: _509  and  _512
REMARK  214  A    between atoms: _512  and  _513
REMARK  215  A    between atoms: _519  and  _521
REMARK  216  A    between atoms: _521  and  _522
REMARK  217  A    between atoms: _521  and  _524
REMARK  218  A    between atoms: _524  and  _525
REMARK  219  A    between atoms: _528  and  _530
REMARK  220  A    between atoms: _530  and  _531
REMARK  221  A    between atoms: _530  and  _533
REMARK  222  A    between atoms: _533  and  _534
REMARK  223  A    between atoms: _537  and  _539
REMARK  224  A    between atoms: _539  and  _540
REMARK  225  A    between atoms: _539  and  _542
REMARK  226  A    between atoms: _545  and  _547
REMARK  227  A    between atoms: _547  and  _548
REMARK  228  A    between atoms: _547  and  _550
REMARK  229  A    between atoms: _550  and  _551
REMARK  230  A    between atoms: _554  and  _556
REMARK  231  A    between atoms: _556  and  _557
REMARK  232  A    between atoms: _556  and  _559
REMARK  233  A    between atoms: _559  and  _560
REMARK  234  A    between atoms: _567  and  _568
REMARK  235  A    between atoms: _573  and  _575
REMARK  236  A    between atoms: _575  and  _576
REMARK  237  A    between atoms: _575  and  _578
REMARK  238  A    between atoms: _578  and  _579
REMARK  239  A    between atoms: _579  and  _580
REMARK  240  A    between atoms: _582  and  _584
REMARK  241  A    between atoms: _584  and  _585
REMARK  242  A    between atoms: _584  and  _587
REMARK  243  A    between atoms: _587  and  _588
REMARK  244  A    between atoms: _588  and  _589
REMARK  245  A    between atoms: _591  and  _593
REMARK  246  A    between atoms: _593  and  _594
REMARK  247  A    between atoms: _597  and  _599
REMARK  248  A    between atoms: _599  and  _600
REMARK  249  A    between atoms: _599  and  _602
REMARK  250  A    between atoms: _602  and  _603
REMARK  251  A    between atoms: _603  and  _604
REMARK  252  A    between atoms: _607  and  _609
REMARK  253  A    between atoms: _609  and  _610
REMARK  254  A    between atoms: _609  and  _612
REMARK  255  A    between atoms: _612  and  _613
REMARK  256  A    between atoms: _616  and  _618
REMARK  257  A    between atoms: _618  and  _619
REMARK  258  A    between atoms: _618  and  _621
REMARK  259  A    between atoms: _621  and  _622
REMARK  260  A    between atoms: _625  and  _627
REMARK  261  A    between atoms: _627  and  _628
REMARK  262  A    between atoms: _627  and  _630
REMARK  263  A    between atoms: _630  and  _631
REMARK  264  A    between atoms: _633  and  _635
REMARK  265  A    between atoms: _635  and  _636
REMARK  266  A    between atoms: _635  and  _638
REMARK  267  A    between atoms: _641  and  _643
REMARK  268  A    between atoms: _643  and  _644
REMARK  269  A    between atoms: _643  and  _646
REMARK  270  A    between atoms: _646  and  _647
REMARK  271  A    between atoms: _647  and  _648
REMARK  272  A    between atoms: _653  and  _655
REMARK  273  A    between atoms: _655  and  _656
REMARK  274  A    between atoms: _655  and  _658
REMARK  275  A    between atoms: _662  and  _663
REMARK  276  A    between atoms: _668  and  _670
REMARK  277  A    between atoms: _670  and  _671
REMARK  278  A    between atoms: _670  and  _673
REMARK  279  A    between atoms: _673  and  _674
REMARK                            x       y       z     vdW  Elec       q    Type
REMARK                         _______ _______ _______ _____ _____    ______ ____
ROOT
ATOM      1  C   ASP A   2      38.536  -0.513   2.163  0.00  0.00    +0.241 C 
ATOM      2  N   PHE A   3      39.008  -0.707   3.391  0.00  0.00    -0.297 N 
ATOM      3  H   PHE A   3      39.893  -1.240   3.508  0.00  0.00    +0.150 HD
ATOM      4  O   ASP A   2      37.490   0.087   1.927  0.00  0.00    -0.273 OA
ENDROOT
BRANCH   1   5
ATOM      5  CA  ASP A   2      39.382  -1.089   1.031  0.00  0.00    +0.160 C 
BRANCH   5   8
ATOM      6  C   VAL A   1      38.461  -3.085   0.007  0.00  0.00    +0.238 C 
ATOM      7  O   VAL A   1      38.995  -3.813   0.843  0.00  0.00    -0.274 OA
ATOM      8  N   ASP A   2      38.585  -1.762   0.015  0.00  0.00    -0.297 N 
ATOM      9  H   ASP A   2      38.105  -1.198  -0.716  0.00  0.00    +0.150 HD
BRANCH   6  10
ATOM     10  CA  VAL A   1      37.619  -3.680  -1.111  0.00  0.00    +0.145 C 
BRANCH  10  11
ATOM     11  CB  VAL A   1      36.283  -4.205  -0.539  0.00  0.00    +0.025 C 
ATOM     12  CG2 VAL A   1      35.661  -3.166   0.392  0.00  0.00    +0.002 C 
ATOM     13  CG1 VAL A   1      35.320  -4.513  -1.687  0.00  0.00    +0.002 C 
ENDBRANCH  10  11
BRANCH  10  14
ATOM     14  N   VAL A   1      38.389  -4.747  -1.737  0.00  0.00    -0.238 NA
ATOM     15  H   VAL A   1      38.542  -5.638  -1.224  0.00  0.00    +0.142 HD
ENDBRANCH  10  14
ENDBRANCH   6  10
ENDBRANCH   5   8
BRANCH   5  16
ATOM     16  CB  ASP A   2      40.205   0.036   0.397  0.00  0.00    +0.143 C 
BRANCH  16  17
ATOM     17  CG  ASP A   2      40.979  -0.427  -0.818  0.00  0.00    +0.367 C 
ATOM     18  OD2 ASP A   2      42.211  -0.599  -0.714  0.00  0.00    -0.246 OA
ATOM     19  OD1 ASP A   2      40.350  -0.631  -1.877  0.00  0.00    -0.246 OA
ENDBRANCH  16  17
ENDBRANCH   5  16
ENDBRANCH   1   5
BRANCH   2  20
ATOM     20  CA  PHE A   3      38.330  -0.200   4.582  0.00  0.00    +0.153 C 
BRANCH  20  21
ATOM     21  C   PHE A   3      39.228   0.791   5.309  0.00  0.00    +0.244 C 
ATOM     22  O   PHE A   3      40.376   0.477   5.623  0.00  0.00    -0.273 OA
ATOM     23  N   PRO A   4      38.723   2.006   5.576  0.00  0.00    -0.273 N 
ATOM     24  CA  PRO A   4      39.530   3.003   6.284  0.00  0.00    +0.140 C 
ATOM     25  CB  PRO A   4      38.611   4.221   6.335  0.00  0.00    +0.030 C 
ATOM     26  CG  PRO A   4      37.781   4.073   5.108  0.00  0.00    +0.024 C 
ATOM     27  CD  PRO A   4      37.464   2.597   5.093  0.00  0.00    +0.094 C 
BRANCH  24  28
ATOM     28  C   PRO A   4      39.836   2.459   7.680  0.00  0.00    +0.227 C 
ATOM     29  O   PRO A   4      39.150   1.554   8.158  0.00  0.00    -0.286 OA
ENDBRANCH  24  28
ENDBRANCH  20  21
BRANCH  20  30
ATOM     30  CB  PHE A   3      38.003  -1.330   5.564  0.00  0.00    +0.055 C 
BRANCH  30  31
ATOM     31  CG  PHE A   3      36.784  -2.122   5.203  0.00  0.00    -0.020 A 
ATOM     32  CD2 PHE A   3      35.540  -1.777   5.725  0.00  0.00    -0.004 A 
ATOM     33  CE2 PHE A   3      34.396  -2.516   5.397  0.00  0.00    -0.000 A 
ATOM     34  CZ  PHE A   3      34.500  -3.607   4.541  0.00  0.00    -0.000 A 
ATOM     35  CE1 PHE A   3      35.742  -3.958   4.015  0.00  0.00    -0.000 A 
ATOM     36  CD1 PHE A   3      36.875  -3.213   4.348  0.00  0.00    -0.004 A 
ENDBRANCH  30  31
ENDBRANCH  20  30
ENDBRANCH   2  20
TORSDOF 12
REMARK  Name = ../refined-set-2016/1z95/1z95_pocket.pdb
REMARK  279 active torsions:
REMARK  status: ('A' for Active; 'I' for Inactive)
REMARK    1  A    between atoms: _1  and  _3
REMARK    2  A    between atoms: _3  and  _4
REMARK    3  A    between atoms: _3  and  _6
REMARK    4  A    between atoms: _9  and  _11
REMARK    5  A    between atoms: _11  and  _12
REMARK    6  A    between atoms: _15  and  _17
REMARK    7  A    between atoms: _17  and  _18
REMARK    8  A    between atoms: _17  and  _20
REMARK    9  A    between atoms: _20  and  _21
REMARK   10  A    between atoms: _27  and  _29
REMARK   11  A    between atoms: _29  and  _30
REMARK   12  A    between atoms: _29  and  _32
REMARK   13  A    between atoms: _32  and  _33
REMARK   14  A    between atoms: _36  and  _38
REMARK   15  A    between atoms: _38  and  _39
REMARK   16  A    between atoms: _38  and  _41
REMARK   17  A    between atoms: _41  and  _42
REMARK   18  A    between atoms: _45  and  _47
REMARK   19  A    between atoms: _47  and  _48
REMARK   20  A    between atoms: _47  and  _50
REMARK   21  A    between atoms: _50  and  _51
REMARK   22  A    between atoms: _53  and  _55
REMARK   23  A    between atoms: _55  and  _56
REMARK   24  A    between atoms: _55  and  _58
REMARK   25  A    between atoms: _58  and  _59
REMARK   26  A    between atoms: _61  and  _63
REMARK   27  A    between atoms: _63  and  _64
REMARK   28  A    between atoms: _63  and  _66
REMARK   29  A    between atoms: _66  and  _67
REMARK   30  A    between atoms: _70  and  _72
REMARK   31  A    between atoms: _72  and  _73
REMARK   32  A    between atoms: _72  and  _75
REMARK   33  A    between atoms: _75  and  _76
REMARK   34  A    between atoms: _81  and  _83
REMARK   35  A    between atoms: _83  and  _84
REMARK   36  A    between atoms: _83  and  _86
REMARK   37  A    between atoms: _86  and  _87
REMARK   38  A    between atoms: _87  and  _88
REMARK   39  A    between atoms: _91  and  _93
REMARK   40  A    between atoms: _93  and  _94
REMARK   41  A    between atoms: _93  and  _96
REMARK   42  A    between atoms: _96  and  _97
REMARK   43  A    between atoms: _100  and  _102
REMARK   44  A    between atoms: _102  and  _103
REMARK   45  A    between atoms: _105  and  _107
REMARK   46  A    between atoms: _107  and  _108
REMARK   47  A    between atoms: _107  and  _110
REMARK   48  A    between atoms: _110  and  _111
REMARK   49  A    between atoms: _111  and  _112
REMARK   50  A    between atoms: _115  and  _117
REMARK   51  A    between atoms: _117  and  _118
REMARK   52  A    between atoms: _117  and  _120
REMARK   53  A    between atoms: _120  and  _121
REMARK   54  A    between atoms: _121  and  _122
REMARK   55  A    between atoms: _122  and  _123
REMARK   56  A    between atoms: _132  and  _134
REMARK   57  A    between atoms: _134  and  _135
REMARK   58  A    between atoms: _134  and  _137
REMARK   59  A    between atoms: _137  and  _138
REMARK   60  A    between atoms: _138  and  _139
REMARK   61  A    between atoms: _144  and  _146
REMARK   62  A    between atoms: _146  and  _147
REMARK   63  A    between atoms: _146  and  _149
REMARK   64  A    between atoms: _149  and  _150
REMARK   65  A    between atoms: _153  and  _155
REMARK   66  A    between atoms: _155  and  _156
REMARK   67  A    between atoms: _155  and  _158
REMARK   68  A    between atoms: _158  and  _159
REMARK   69  A    between atoms: _162  and  _164
REMARK   70  A    between atoms: _164  and  _165
REMARK   71  A    between atoms: _164  and  _167
REMARK   72  A    between atoms: _167  and  _168
REMARK   73  A    between atoms: _168  and  _169
REMARK   74  A    between atoms: _174  and  _176
REMARK   75  A    between atoms: _176  and  _177
REMARK   76  A    between atoms: _176  and  _179
REMARK   77  A    between atoms: _179  and  _180
REMARK   78  A    between atoms: _185  and  _186
REMARK   79  A    between atoms: _188  and  _190
REMARK   80  A    between atoms: _190  and  _191
REMARK   81  A    between atoms: _190  and  _193
REMARK   82  A    between atoms: _193  and  _194
REMARK   83  A    between atoms: _196  and  _198
REMARK   84  A    between atoms: _198  and  _199
REMARK   85  A    between atoms: _198  and  _201
REMARK   86  A    between atoms: _201  and  _202
REMARK   87  A    between atoms: _205  and  _207
REMARK   88  A    between atoms: _207  and  _208
REMARK   89  A    between atoms: _207  and  _210
REMARK   90  A    between atoms: _210  and  _211
REMARK   91  A    between atoms: _211  and  _212
REMARK   92  A    between atoms: _214  and  _216
REMARK   93  A    between atoms: _216  and  _217
REMARK   94  A    between atoms: _219  and  _221
REMARK   95  A    between atoms: _221  and  _222
REMARK   96  A    between atoms: _221  and  _224
REMARK   97  A    between atoms: _224  and  _225
REMARK   98  A    between atoms: _228  and  _230
REMARK   99  A    between atoms: _230  and  _231
REMARK  100  A    between atoms: _230  and  _233
REMARK  101  A    between atoms: _233  and  _234
REMARK  102  A    between atoms: _234  and  _235
REMARK  103  A    between atoms: _237  and  _239
REMARK  104  A    between atoms: _239  and  _240
REMARK  105  A    between atoms: _239  and  _242
REMARK  106  A    between atoms: _245  and  _247
REMARK  107  A    between atoms: _247  and  _248
REMARK  108  A    between atoms: _247  and  _250
REMARK  109  A    between atoms: _250  and  _251
REMARK  110  A    between atoms: _257  and  _259
REMARK  111  A    between atoms: _259  and  _260
REMARK  112  A    between atoms: _263  and  _265
REMARK  113  A    between atoms: _265  and  _266
REMARK  114  A    between atoms: _265  and  _268
REMARK  115  A    between atoms: _268  and  _269
REMARK  116  A    between atoms: _269  and  _270
REMARK  117  A    between atoms: _272  and  _274
REMARK  118  A    between atoms: _274  and  _275
REMARK  119  A    between atoms: _277  and  _279
REMARK  120  A    between atoms: _279  and  _280
REMARK  121  A    between atoms: _279  and  _282
REMARK  122  A    between atoms: _282  and  _283
REMARK  123  A    between atoms: _293  and  _295
REMARK  124  A    between atoms: _295  and  _296
REMARK  125  A    between atoms: _295  and  _298
REMARK  126  A    between atoms: _298  and  _299
REMARK  127  A    between atoms: _299  and  _300
REMARK  128  A    between atoms: _300  and  _301
REMARK  129  A    between atoms: _310  and  _312
REMARK  130  A    between atoms: _312  and  _313
REMARK  131  A    between atoms: _312  and  _315
REMARK  132  A    between atoms: _315  and  _316
REMARK  133  A    between atoms: _318  and  _320
REMARK  134  A    between atoms: _320  and  _321
REMARK  135  A    between atoms: _320  and  _323
REMARK  136  A    between atoms: _323  and  _324
REMARK  137  A    between atoms: _327  and  _329
REMARK  138  A    between atoms: _329  and  _330
REMARK  139  A    between atoms: _329  and  _332
REMARK  140  A    between atoms: _332  and  _333
REMARK  141  A    between atoms: _338  and  _339
REMARK  142  A    between atoms: _341  and  _343
REMARK  143  A    between atoms: _343  and  _344
REMARK  144  A    between atoms: _343  and  _346
REMARK  145  A    between atoms: _346  and  _347
REMARK  146  A    between atoms: _353  and  _355
REMARK  147  A    between atoms: _355  and  _356
REMARK  148  A    between atoms: _359  and  _361
REMARK  149  A    between atoms: _361  and  _362
REMARK  150  A    between atoms: _361  and  _364
REMARK  151  A    between atoms: _364  and  _365
REMARK  152  A    between atoms: _368  and  _370
REMARK  153  A    between atoms: _370  and  _371
REMARK  154  A    between atoms: _370  and  _373
REMARK  155  A    between atoms: _373  and  _374
REMARK  156  A    between atoms: _380  and  _382
REMARK  157  A    between atoms: _382  and  _383
REMARK  158  A    between atoms: _382  and  _385
REMARK  159  A    between atoms: _385  and  _386
REMARK  160  A    between atoms: _388  and  _390
REMARK  161  A    between atoms: _390  and  _391
REMARK  162  A    between atoms: _390  and  _393
REMARK  163  A    between atoms: _393  and  _394
REMARK  164  A    between atoms: _394  and  _395
REMARK  165  A    between atoms: _397  and  _399
REMARK  166  A    between atoms: _399  and  _400
REMARK  167  A    between atoms: _399  and  _402
REMARK  168  A    between atoms: _402  and  _403
REMARK  169  A    between atoms: _403  and  _404
REMARK  170  A    between atoms: _409  and  _411
REMARK  171  A    between atoms: _411  and  _412
REMARK  172  A    between atoms: _411  and  _414
REMARK  173  A    between atoms: _416  and  _418
REMARK  174  A    between atoms: _418  and  _419
REMARK  175  A    between atoms: _418  and  _421
REMARK  176  A    between atoms: _421  and  _422
REMARK  177  A    between atoms: _422  and  _423
REMARK  178  A    between atoms: _425  and  _427
REMARK  179  A    between atoms: _427  and  _428
REMARK  180  A    between atoms: _427  and  _430
REMARK  181  A    between atoms: _430  and  _431
REMARK  182  A    between atoms: _434  and  _436
REMARK  183  A    between atoms: _436  and  _437
REMARK  184  A    between atoms: _436  and  _439
REMARK  185  A    between atoms: _439  and  _440
REMARK  186  A    between atoms: _443  and  _445
REMARK  187  A    between atoms: _445  and  _446
REMARK  188  A    between atoms: _445  and  _448
REMARK  189  A    between atoms: _451  and  _453
REMARK  190  A    between atoms: _453  and  _454
REMARK  191  A    between atoms: _453  and  _456
REMARK  192  A    between atoms: _456  and  _457
REMARK  193  A    between atoms: _460  and  _462
REMARK  194  A    between atoms: _462  and  _463
REMARK  195  A    between atoms: _466  and  _468
REMARK  196  A    between atoms: _468  and  _469
REMARK  197  A    between atoms: _468  and  _471
REMARK  198  A    between atoms: _471  and  _472
REMARK  199  A    between atoms: _475  and  _477
REMARK  200  A    between atoms: _477  and  _478
REMARK  201  A    between atoms: _477  and  _480
REMARK  202  A    between atoms: _480  and  _481
REMARK  203  A    between atoms: _486  and  _488
REMARK  204  A    between atoms: _488  and  _489
REMARK  205  A    between atoms: _488  and  _491
REMARK  206  A    between atoms: _491  and  _492
REMARK  207  A    between atoms: _498  and  _500
REMARK  208  A    between atoms: _500  and  _501
REMARK  209  A    between atoms: _500  and  _503
REMARK  210  A    between atoms: _503  and  _504
REMARK  211  A    between atoms: _507  and  _509
REMARK  212  A    between atoms: _509  and  _510
REMARK  213  A    between atoms: _509  and  _512
REMARK  214  A    between atoms: _512  and  _513
REMARK  215  A    between atoms: _519  and  _521
REMARK  216  A    between atoms: _521  and  _522
REMARK  217  A    between atoms: _521  and  _524
REMARK  218  A    between atoms: _524  and  _525
REMARK  219  A    between atoms: _528  and  _530
REMARK  220  A    between atoms: _530  and  _531
REMARK  221  A    between atoms: _530  and  _533
REMARK  222  A    between atoms: _533  and  _534
REMARK  223  A    between atoms: _537  and  _539
REMARK  224  A    between atoms: _539  and  _540
REMARK  225  A    between atoms: _539  and  _542
REMARK  226  A    between atoms: _545  and  _547
REMARK  227  A    between atoms: _547  and  _548
REMARK  228  A    between atoms: _547  and  _550
REMARK  229  A    between atoms: _550  and  _551
REMARK  230  A    between atoms: _554  and  _556
REMARK  231  A    between atoms: _556  and  _557
REMARK  232  A    between atoms: _556  and  _559
REMARK  233  A    between atoms: _559  and  _560
REMARK  234  A    between atoms: _567  and  _568
REMARK  235  A    between atoms: _573  and  _575
REMARK  236  A    between atoms: _575  and  _576
REMARK  237  A    between atoms: _575  and  _578
REMARK  238  A    between atoms: _578  and  _579
REMARK  239  A    between atoms: _579  and  _580
REMARK  240  A    between atoms: _582  and  _584
REMARK  241  A    between atoms: _584  and  _585
REMARK  242  A    between atoms: _584  and  _587
REMARK  243  A    between atoms: _587  and  _588
REMARK  244  A    between atoms: _588  and  _589
REMARK  245  A    between atoms: _591  and  _593
REMARK  246  A    between atoms: _593  and  _594
REMARK  247  A    between atoms: _597  and  _599
REMARK  248  A    between atoms: _599  and  _600
REMARK  249  A    between atoms: _599  and  _602
REMARK  250  A    between atoms: _602  and  _603
REMARK  251  A    between atoms: _603  and  _604
REMARK  252  A    between atoms: _607  and  _609
REMARK  253  A    between atoms: _609  and  _610
REMARK  254  A    between atoms: _609  and  _612
REMARK  255  A    between atoms: _612  and  _613
REMARK  256  A    between atoms: _616  and  _618
REMARK  257  A    between atoms: _618  and  _619
REMARK  258  A    between atoms: _618  and  _621
REMARK  259  A    between atoms: _621  and  _622
REMARK  260  A    between atoms: _625  and  _627
REMARK  261  A    between atoms: _627  and  _628
REMARK  262  A    between atoms: _627  and  _630
REMARK  263  A    between atoms: _630  and  _631
REMARK  264  A    between atoms: _633  and  _635
REMARK  265  A    between atoms: _635  and  _636
REMARK  266  A    between atoms: _635  and  _638
REMARK  267  A    between atoms: _641  and  _643
REMARK  268  A    between atoms: _643  and  _644
REMARK  269  A    between atoms: _643  and  _646
REMARK  270  A    between atoms: _646  and  _647
REMARK  271  A    between atoms: _647  and  _648
REMARK  272  A    between atoms: _653  and  _655
REMARK  273  A    between atoms: _655  and  _656
REMARK  274  A    between atoms: _655  and  _658
REMARK  275  A    between atoms: _662  and  _663
REMARK  276  A    between atoms: _668  and  _670
REMARK  277  A    between atoms: _670  and  _671
REMARK  278  A    between atoms: _670  and  _673
REMARK  279  A    between atoms: _673  and  _674
REMARK                            x       y       z     vdW  Elec       q    Type
REMARK                         _______ _______ _______ _____ _____    ______ ____
ROOT
ATOM      1  CA  ILE A   6      33.682  -3.508  12.400  0.00  0.00    +0.149 C 
ENDROOT
BRANCH   1   2
ATOM      2  C   ILE A   6      34.223  -4.753  13.109  0.00  0.00    +0.241 C 
ATOM      3  N   SER A   7      35.494  -4.725  13.504  0.00  0.00    -0.295 N 
ATOM      4  H   SER A   7      36.065  -3.871  13.343  0.00  0.00    +0.150 HD
ATOM      5  O   ILE A   6      33.491  -5.725  13.300  0.00  0.00    -0.273 OA
BRANCH   3   6
ATOM      6  CA  SER A   7      36.093  -5.885  14.162  0.00  0.00    +0.178 C 
BRANCH   6   7
ATOM      7  C   SER A   7      36.030  -5.867  15.694  0.00  0.00    +0.243 C 
ATOM      8  O   SER A   7      36.185  -6.907  16.333  0.00  0.00    -0.273 OA
ATOM      9  N   VAL A   8      35.787  -4.701  16.286  0.00  0.00    -0.297 N 
ATOM     10  H   VAL A   8      35.632  -3.852  15.706  0.00  0.00    +0.150 HD
BRANCH   9  11
ATOM     11  CA  VAL A   8      35.736  -4.600  17.740  0.00  0.00    +0.149 C 
BRANCH  11  12
ATOM     12  C   VAL A   8      34.326  -4.418  18.308  0.00  0.00    +0.241 C 
ATOM     13  O   VAL A   8      33.958  -5.070  19.287  0.00  0.00    -0.273 OA
ATOM     14  N   GLN A   9      33.540  -3.538  17.695  0.00  0.00    -0.297 N 
ATOM     15  H   GLN A   9      33.895  -3.035  16.857  0.00  0.00    +0.150 HD
BRANCH  14  16
ATOM     16  CA  GLN A   9      32.184  -3.263  18.176  0.00  0.00    +0.149 C 
BRANCH  16  17
ATOM     17  C   GLN A   9      31.085  -4.088  17.505  0.00  0.00    +0.241 C 
ATOM     18  O   GLN A   9      30.214  -4.631  18.183  0.00  0.00    -0.273 OA
ATOM     19  N   VAL A  10      31.115  -4.164  16.177  0.00  0.00    -0.297 N 
ATOM     20  H   VAL A  10      31.884  -3.693  15.658  0.00  0.00    +0.150 HD
BRANCH  19  21
ATOM     21  CA  VAL A  10      30.089  -4.896  15.430  0.00  0.00    +0.149 C 
BRANCH  21  22
ATOM     22  C   VAL A  10      29.946  -6.373  15.821  0.00  0.00    +0.244 C 
ATOM     23  N   PRO A  11      31.062  -7.062  16.132  0.00  0.00    -0.273 N 
ATOM     24  CA  PRO A  11      30.919  -8.477  16.512  0.00  0.00    +0.140 C 
ATOM     25  CB  PRO A  11      32.371  -8.960  16.609  0.00  0.00    +0.030 C 
ATOM     26  CG  PRO A  11      33.081  -8.075  15.605  0.00  0.00    +0.024 C 
ATOM     27  CD  PRO A  11      32.480  -6.721  15.923  0.00  0.00    +0.094 C 
ATOM     28  O   VAL A  10      28.834  -6.898  15.851  0.00  0.00    -0.273 OA
BRANCH  24  29
ATOM     29  C   PRO A  11      30.157  -8.609  17.832  0.00  0.00    +0.227 C 
ATOM     30  O   PRO A  11      29.512  -9.623  18.091  0.00  0.00    -0.286 OA
ENDBRANCH  24  29
ENDBRANCH  21  22
BRANCH  21  31
ATOM     31  CB  VAL A  10      30.325  -4.774  13.896  0.00  0.00    +0.027 C 
ATOM     32  CG2 VAL A  10      30.197  -3.302  13.468  0.00  0.00    +0.002 C 
ATOM     33  CG1 VAL A  10      29.308  -5.622  13.125  0.00  0.00    +0.002 C 
ENDBRANCH  21  31
ENDBRANCH  19  21
ENDBRANCH  16  17
BRANCH  16  34
ATOM     34  CB  GLN A   9      31.832  -1.777  17.991  0.00  0.00    +0.039 C 
BRANCH  34  35
ATOM     35  CG  GLN A   9      32.876  -0.773  18.446  0.00  0.00    +0.087 C 
BRANCH  35  36
ATOM     36  CD  GLN A   9      33.286  -0.956  19.885  0.00  0.00    +0.219 C 
ATOM     37  OE1 GLN A   9      32.512  -1.445  20.708  0.00  0.00    -0.275 OA
ATOM     38  NE2 GLN A   9      34.515  -0.551  20.205  0.00  0.00    -0.329 N 
ATOM     39 HE21 GLN A   9      34.854  -0.643  21.184  0.00  0.00    +0.145 HD
ATOM     40 HE22 GLN A   9      35.135  -0.143  19.476  0.00  0.00    +0.145 HD
ENDBRANCH  35  36
ENDBRANCH  34  35
ENDBRANCH  16  34
ENDBRANCH  14  16
ENDBRANCH  11  12
BRANCH  11  41
ATOM     41  CB  VAL A   8      36.628  -3.426  18.249  0.00  0.00    +0.027 C 
ATOM     42  CG2 VAL A   8      36.405  -3.201  19.740  0.00  0.00    +0.002 C 
ATOM     43  CG1 VAL A   8      38.087  -3.720  17.977  0.00  0.00    +0.002 C 
ENDBRANCH  11  41
ENDBRANCH   9  11
ENDBRANCH   6   7
BRANCH   6  44
ATOM     44  CB  SER A   7      37.549  -6.051  13.706  0.00  0.00    +0.166 C 
BRANCH  44  45
ATOM     45  OG  SER A   7      38.355  -4.958  14.120  0.00  0.00    -0.380 OA
ATOM     46  H   SER A   7      37.999  -4.121  13.730  0.00  0.00    +0.211 HD
ENDBRANCH  44  45
ENDBRANCH   6  44
ENDBRANCH   3   6
ENDBRANCH   1   2
BRANCH   1  49
ATOM     47  C   ILE A   5      34.014  -1.864  14.157  0.00  0.00    +0.241 C 
ATOM     48  O   ILE A   5      33.287  -2.494  14.918  0.00  0.00    -0.273 OA
ATOM     49  N   ILE A   6      34.276  -2.277  12.921  0.00  0.00    -0.297 N 
ATOM     50  H   ILE A   6      34.911  -1.718  12.317  0.00  0.00    +0.150 HD
BRANCH  47  51
ATOM     51  CA  ILE A   5      34.670  -0.552  14.611  0.00  0.00    +0.149 C 
BRANCH  51  54
ATOM     52  C   GLU A   4      36.991  -1.264  14.544  0.00  0.00    +0.241 C 
ATOM     53  O   GLU A   4      36.771  -2.191  15.326  0.00  0.00    -0.273 OA
ATOM     54  N   ILE A   5      36.044  -0.421  14.138  0.00  0.00    -0.297 N 
ATOM     55  H   ILE A   5      36.287   0.342  13.474  0.00  0.00    +0.150 HD
BRANCH  52  56
ATOM     56  CA  GLU A   4      38.391  -1.028  13.992  0.00  0.00    +0.149 C 
BRANCH  56  58
ATOM     57  C   ALA A   3      38.029  -1.810  11.724  0.00  0.00    +0.241 C 
ATOM     58  N   GLU A   4      38.337  -0.818  12.552  0.00  0.00    -0.297 N 
ATOM     59  H   GLU A   4      38.543   0.125  12.165  0.00  0.00    +0.150 HD
ATOM     60  O   ALA A   3      37.794  -2.959  12.117  0.00  0.00    -0.273 OA
BRANCH  57  61
ATOM     61  CA  ALA A   3      37.987  -1.465  10.236  0.00  0.00    +0.149 C 
ATOM     62  CB  ALA A   3      39.388  -1.567   9.631  0.00  0.00    +0.031 C 
BRANCH  61  65
ATOM     63  C   MET A   2      36.229   0.223  10.422  0.00  0.00    +0.241 C 
ATOM     64  O   MET A   2      35.475  -0.544  11.014  0.00  0.00    -0.273 OA
ATOM     65  N   ALA A   3      37.449  -0.123  10.018  0.00  0.00    -0.297 N 
ATOM     66  H   ALA A   3      38.038   0.583   9.532  0.00  0.00    +0.150 HD
BRANCH  63  67
ATOM     67  CA  MET A   2      35.806   1.660  10.137  0.00  0.00    +0.149 C 
BRANCH  67  70
ATOM     68  C   MET A   1      37.277   2.702  11.736  0.00  0.00    +0.238 C 
ATOM     69  O   MET A   1      36.704   2.135  12.667  0.00  0.00    -0.274 OA
ATOM     70  N   MET A   2      36.907   2.548  10.472  0.00  0.00    -0.297 N 
ATOM     71  H   MET A   2      37.406   3.064   9.719  0.00  0.00    +0.150 HD
BRANCH  68  72
ATOM     72  CA  MET A   1      38.445   3.639  12.003  0.00  0.00    +0.146 C 
BRANCH  72  73
ATOM     73  N   MET A   1      39.494   3.609  10.988  0.00  0.00    -0.238 NA
ATOM     74  H   MET A   1      39.716   4.476  10.458  0.00  0.00    +0.142 HD
ENDBRANCH  72  73
BRANCH  72  75
ATOM     75  CB  MET A   1      37.916   5.063  12.193  0.00  0.00    +0.038 C 
BRANCH  75  76
ATOM     76  CG  MET A   1      38.580   5.807  13.345  0.00  0.00    +0.060 C 
BRANCH  76  77
ATOM     77  SD  MET A   1      38.578   4.813  14.861  0.00  0.00    -0.139 S 
ATOM     78  CE  MET A   1      37.089   5.395  15.687  0.00  0.00    +0.069 C 
ENDBRANCH  76  77
ENDBRANCH  75  76
ENDBRANCH  72  75
ENDBRANCH  68  72
ENDBRANCH  67  70
BRANCH  67  79
ATOM     79  CB  MET A   2      35.420   1.835   8.671  0.00  0.00    +0.041 C 
BRANCH  79  80
ATOM     80  CG  MET A   2      35.091   3.281   8.331  0.00  0.00    +0.060 C 
BRANCH  80  81
ATOM     81  SD  MET A   2      34.124   4.082   9.649  0.00  0.00    -0.139 S 
ATOM     82  CE  MET A   2      32.546   3.398   9.261  0.00  0.00    +0.069 C 
ENDBRANCH  80  81
ENDBRANCH  79  80
ENDBRANCH  67  79
ENDBRANCH  63  67
ENDBRANCH  61  65
ENDBRANCH  57  61
ENDBRANCH  56  58
BRANCH  56  83
ATOM     83  CB  GLU A   4      39.006   0.186  14.692  0.00  0.00    +0.041 C 
BRANCH  83  84
ATOM     84  CG  GLU A   4      39.015   0.080  16.211  0.00  0.00    +0.116 C 
BRANCH  84  85
ATOM     85  CD  GLU A   4      39.359   1.396  16.888  0.00  0.00    +0.365 C 
ATOM     86  OE2 GLU A   4      38.544   1.872  17.709  0.00  0.00    -0.246 OA
ATOM     87  OE1 GLU A   4      40.443   1.954  16.600  0.00  0.00    -0.246 OA
ENDBRANCH  84  85
ENDBRANCH  83  84
ENDBRANCH  56  83
ENDBRANCH  52  56
ENDBRANCH  51  54
BRANCH  51  88
ATOM     88  CB  ILE A   5      33.788   0.642  14.138  0.00  0.00    +0.027 C 
ATOM     89  CG2 ILE A   5      32.326   0.387  14.489  0.00  0.00    +0.002 C 
BRANCH  88  90
ATOM     90  CG1 ILE A   5      34.253   1.940  14.809  0.00  0.00    +0.002 C 
ATOM     91  CD1 ILE A   5      33.467   3.173  14.364  0.00  0.00    +0.000 C 
ENDBRANCH  88  90
ENDBRANCH  51  88
ENDBRANCH  47  51
ENDBRANCH   1  49
BRANCH   1  92
ATOM     92  CB  ILE A   6      33.944  -3.651  10.880  0.00  0.00    +0.027 C 
ATOM     93  CG2 ILE A   6      33.402  -4.985  10.362  0.00  0.00    +0.002 C 
BRANCH  92  94
ATOM     94  CG1 ILE A   6      33.282  -2.493  10.132  0.00  0.00    +0.002 C 
ATOM     95  CD1 ILE A   6      33.787  -2.326   8.708  0.00  0.00    +0.000 C 
ENDBRANCH  92  94
ENDBRANCH   1  92
TORSDOF 41
REMARK  Name = ../refined-set-2016/1z95/1z95_pocket.pdb
REMARK  279 active torsions:
REMARK  status: ('A' for Active; 'I' for Inactive)
REMARK    1  A    between atoms: _1  and  _3
REMARK    2  A    between atoms: _3  and  _4
REMARK    3  A    between atoms: _3  and  _6
REMARK    4  A    between atoms: _9  and  _11
REMARK    5  A    between atoms: _11  and  _12
REMARK    6  A    between atoms: _15  and  _17
REMARK    7  A    between atoms: _17  and  _18
REMARK    8  A    between atoms: _17  and  _20
REMARK    9  A    between atoms: _20  and  _21
REMARK   10  A    between atoms: _27  and  _29
REMARK   11  A    between atoms: _29  and  _30
REMARK   12  A    between atoms: _29  and  _32
REMARK   13  A    between atoms: _32  and  _33
REMARK   14  A    between atoms: _36  and  _38
REMARK   15  A    between atoms: _38  and  _39
REMARK   16  A    between atoms: _38  and  _41
REMARK   17  A    between atoms: _41  and  _42
REMARK   18  A    between atoms: _45  and  _47
REMARK   19  A    between atoms: _47  and  _48
REMARK   20  A    between atoms: _47  and  _50
REMARK   21  A    between atoms: _50  and  _51
REMARK   22  A    between atoms: _53  and  _55
REMARK   23  A    between atoms: _55  and  _56
REMARK   24  A    between atoms: _55  and  _58
REMARK   25  A    between atoms: _58  and  _59
REMARK   26  A    between atoms: _61  and  _63
REMARK   27  A    between atoms: _63  and  _64
REMARK   28  A    between atoms: _63  and  _66
REMARK   29  A    between atoms: _66  and  _67
REMARK   30  A    between atoms: _70  and  _72
REMARK   31  A    between atoms: _72  and  _73
REMARK   32  A    between atoms: _72  and  _75
REMARK   33  A    between atoms: _75  and  _76
REMARK   34  A    between atoms: _81  and  _83
REMARK   35  A    between atoms: _83  and  _84
REMARK   36  A    between atoms: _83  and  _86
REMARK   37  A    between atoms: _86  and  _87
REMARK   38  A    between atoms: _87  and  _88
REMARK   39  A    between atoms: _91  and  _93
REMARK   40  A    between atoms: _93  and  _94
REMARK   41  A    between atoms: _93  and  _96
REMARK   42  A    between atoms: _96  and  _97
REMARK   43  A    between atoms: _100  and  _102
REMARK   44  A    between atoms: _102  and  _103
REMARK   45  A    between atoms: _105  and  _107
REMARK   46  A    between atoms: _107  and  _108
REMARK   47  A    between atoms: _107  and  _110
REMARK   48  A    between atoms: _110  and  _111
REMARK   49  A    between atoms: _111  and  _112
REMARK   50  A    between atoms: _115  and  _117
REMARK   51  A    between atoms: _117  and  _118
REMARK   52  A    between atoms: _117  and  _120
REMARK   53  A    between atoms: _120  and  _121
REMARK   54  A    between atoms: _121  and  _122
REMARK   55  A    between atoms: _122  and  _123
REMARK   56  A    between atoms: _132  and  _134
REMARK   57  A    between atoms: _134  and  _135
REMARK   58  A    between atoms: _134  and  _137
REMARK   59  A    between atoms: _137  and  _138
REMARK   60  A    between atoms: _138  and  _139
REMARK   61  A    between atoms: _144  and  _146
REMARK   62  A    between atoms: _146  and  _147
REMARK   63  A    between atoms: _146  and  _149
REMARK   64  A    between atoms: _149  and  _150
REMARK   65  A    between atoms: _153  and  _155
REMARK   66  A    between atoms: _155  and  _156
REMARK   67  A    between atoms: _155  and  _158
REMARK   68  A    between atoms: _158  and  _159
REMARK   69  A    between atoms: _162  and  _164
REMARK   70  A    between atoms: _164  and  _165
REMARK   71  A    between atoms: _164  and  _167
REMARK   72  A    between atoms: _167  and  _168
REMARK   73  A    between atoms: _168  and  _169
REMARK   74  A    between atoms: _174  and  _176
REMARK   75  A    between atoms: _176  and  _177
REMARK   76  A    between atoms: _176  and  _179
REMARK   77  A    between atoms: _179  and  _180
REMARK   78  A    between atoms: _185  and  _186
REMARK   79  A    between atoms: _188  and  _190
REMARK   80  A    between atoms: _190  and  _191
REMARK   81  A    between atoms: _190  and  _193
REMARK   82  A    between atoms: _193  and  _194
REMARK   83  A    between atoms: _196  and  _198
REMARK   84  A    between atoms: _198  and  _199
REMARK   85  A    between atoms: _198  and  _201
REMARK   86  A    between atoms: _201  and  _202
REMARK   87  A    between atoms: _205  and  _207
REMARK   88  A    between atoms: _207  and  _208
REMARK   89  A    between atoms: _207  and  _210
REMARK   90  A    between atoms: _210  and  _211
REMARK   91  A    between atoms: _211  and  _212
REMARK   92  A    between atoms: _214  and  _216
REMARK   93  A    between atoms: _216  and  _217
REMARK   94  A    between atoms: _219  and  _221
REMARK   95  A    between atoms: _221  and  _222
REMARK   96  A    between atoms: _221  and  _224
REMARK   97  A    between atoms: _224  and  _225
REMARK   98  A    between atoms: _228  and  _230
REMARK   99  A    between atoms: _230  and  _231
REMARK  100  A    between atoms: _230  and  _233
REMARK  101  A    between atoms: _233  and  _234
REMARK  102  A    between atoms: _234  and  _235
REMARK  103  A    between atoms: _237  and  _239
REMARK  104  A    between atoms: _239  and  _240
REMARK  105  A    between atoms: _239  and  _242
REMARK  106  A    between atoms: _245  and  _247
REMARK  107  A    between atoms: _247  and  _248
REMARK  108  A    between atoms: _247  and  _250
REMARK  109  A    between atoms: _250  and  _251
REMARK  110  A    between atoms: _257  and  _259
REMARK  111  A    between atoms: _259  and  _260
REMARK  112  A    between atoms: _263  and  _265
REMARK  113  A    between atoms: _265  and  _266
REMARK  114  A    between atoms: _265  and  _268
REMARK  115  A    between atoms: _268  and  _269
REMARK  116  A    between atoms: _269  and  _270
REMARK  117  A    between atoms: _272  and  _274
REMARK  118  A    between atoms: _274  and  _275
REMARK  119  A    between atoms: _277  and  _279
REMARK  120  A    between atoms: _279  and  _280
REMARK  121  A    between atoms: _279  and  _282
REMARK  122  A    between atoms: _282  and  _283
REMARK  123  A    between atoms: _293  and  _295
REMARK  124  A    between atoms: _295  and  _296
REMARK  125  A    between atoms: _295  and  _298
REMARK  126  A    between atoms: _298  and  _299
REMARK  127  A    between atoms: _299  and  _300
REMARK  128  A    between atoms: _300  and  _301
REMARK  129  A    between atoms: _310  and  _312
REMARK  130  A    between atoms: _312  and  _313
REMARK  131  A    between atoms: _312  and  _315
REMARK  132  A    between atoms: _315  and  _316
REMARK  133  A    between atoms: _318  and  _320
REMARK  134  A    between atoms: _320  and  _321
REMARK  135  A    between atoms: _320  and  _323
REMARK  136  A    between atoms: _323  and  _324
REMARK  137  A    between atoms: _327  and  _329
REMARK  138  A    between atoms: _329  and  _330
REMARK  139  A    between atoms: _329  and  _332
REMARK  140  A    between atoms: _332  and  _333
REMARK  141  A    between atoms: _338  and  _339
REMARK  142  A    between atoms: _341  and  _343
REMARK  143  A    between atoms: _343  and  _344
REMARK  144  A    between atoms: _343  and  _346
REMARK  145  A    between atoms: _346  and  _347
REMARK  146  A    between atoms: _353  and  _355
REMARK  147  A    between atoms: _355  and  _356
REMARK  148  A    between atoms: _359  and  _361
REMARK  149  A    between atoms: _361  and  _362
REMARK  150  A    between atoms: _361  and  _364
REMARK  151  A    between atoms: _364  and  _365
REMARK  152  A    between atoms: _368  and  _370
REMARK  153  A    between atoms: _370  and  _371
REMARK  154  A    between atoms: _370  and  _373
REMARK  155  A    between atoms: _373  and  _374
REMARK  156  A    between atoms: _380  and  _382
REMARK  157  A    between atoms: _382  and  _383
REMARK  158  A    between atoms: _382  and  _385
REMARK  159  A    between atoms: _385  and  _386
REMARK  160  A    between atoms: _388  and  _390
REMARK  161  A    between atoms: _390  and  _391
REMARK  162  A    between atoms: _390  and  _393
REMARK  163  A    between atoms: _393  and  _394
REMARK  164  A    between atoms: _394  and  _395
REMARK  165  A    between atoms: _397  and  _399
REMARK  166  A    between atoms: _399  and  _400
REMARK  167  A    between atoms: _399  and  _402
REMARK  168  A    between atoms: _402  and  _403
REMARK  169  A    between atoms: _403  and  _404
REMARK  170  A    between atoms: _409  and  _411
REMARK  171  A    between atoms: _411  and  _412
REMARK  172  A    between atoms: _411  and  _414
REMARK  173  A    between atoms: _416  and  _418
REMARK  174  A    between atoms: _418  and  _419
REMARK  175  A    between atoms: _418  and  _421
REMARK  176  A    between atoms: _421  and  _422
REMARK  177  A    between atoms: _422  and  _423
REMARK  178  A    between atoms: _425  and  _427
REMARK  179  A    between atoms: _427  and  _428
REMARK  180  A    between atoms: _427  and  _430
REMARK  181  A    between atoms: _430  and  _431
REMARK  182  A    between atoms: _434  and  _436
REMARK  183  A    between atoms: _436  and  _437
REMARK  184  A    between atoms: _436  and  _439
REMARK  185  A    between atoms: _439  and  _440
REMARK  186  A    between atoms: _443  and  _445
REMARK  187  A    between atoms: _445  and  _446
REMARK  188  A    between atoms: _445  and  _448
REMARK  189  A    between atoms: _451  and  _453
REMARK  190  A    between atoms: _453  and  _454
REMARK  191  A    between atoms: _453  and  _456
REMARK  192  A    between atoms: _456  and  _457
REMARK  193  A    between atoms: _460  and  _462
REMARK  194  A    between atoms: _462  and  _463
REMARK  195  A    between atoms: _466  and  _468
REMARK  196  A    between atoms: _468  and  _469
REMARK  197  A    between atoms: _468  and  _471
REMARK  198  A    between atoms: _471  and  _472
REMARK  199  A    between atoms: _475  and  _477
REMARK  200  A    between atoms: _477  and  _478
REMARK  201  A    between atoms: _477  and  _480
REMARK  202  A    between atoms: _480  and  _481
REMARK  203  A    between atoms: _486  and  _488
REMARK  204  A    between atoms: _488  and  _489
REMARK  205  A    between atoms: _488  and  _491
REMARK  206  A    between atoms: _491  and  _492
REMARK  207  A    between atoms: _498  and  _500
REMARK  208  A    between atoms: _500  and  _501
REMARK  209  A    between atoms: _500  and  _503
REMARK  210  A    between atoms: _503  and  _504
REMARK  211  A    between atoms: _507  and  _509
REMARK  212  A    between atoms: _509  and  _510
REMARK  213  A    between atoms: _509  and  _512
REMARK  214  A    between atoms: _512  and  _513
REMARK  215  A    between atoms: _519  and  _521
REMARK  216  A    between atoms: _521  and  _522
REMARK  217  A    between atoms: _521  and  _524
REMARK  218  A    between atoms: _524  and  _525
REMARK  219  A    between atoms: _528  and  _530
REMARK  220  A    between atoms: _530  and  _531
REMARK  221  A    between atoms: _530  and  _533
REMARK  222  A    between atoms: _533  and  _534
REMARK  223  A    between atoms: _537  and  _539
REMARK  224  A    between atoms: _539  and  _540
REMARK  225  A    between atoms: _539  and  _542
REMARK  226  A    between atoms: _545  and  _547
REMARK  227  A    between atoms: _547  and  _548
REMARK  228  A    between atoms: _547  and  _550
REMARK  229  A    between atoms: _550  and  _551
REMARK  230  A    between atoms: _554  and  _556
REMARK  231  A    between atoms: _556  and  _557
REMARK  232  A    between atoms: _556  and  _559
REMARK  233  A    between atoms: _559  and  _560
REMARK  234  A    between atoms: _567  and  _568
REMARK  235  A    between atoms: _573  and  _575
REMARK  236  A    between atoms: _575  and  _576
REMARK  237  A    between atoms: _575  and  _578
REMARK  238  A    between atoms: _578  and  _579
REMARK  239  A    between atoms: _579  and  _580
REMARK  240  A    between atoms: _582  and  _584
REMARK  241  A    between atoms: _584  and  _585
REMARK  242  A    between atoms: _584  and  _587
REMARK  243  A    between atoms: _587  and  _588
REMARK  244  A    between atoms: _588  and  _589
REMARK  245  A    between atoms: _591  and  _593
REMARK  246  A    between atoms: _593  and  _594
REMARK  247  A    between atoms: _597  and  _599
REMARK  248  A    between atoms: _599  and  _600
REMARK  249  A    between atoms: _599  and  _602
REMARK  250  A    between atoms: _602  and  _603
REMARK  251  A    between atoms: _603  and  _604
REMARK  252  A    between atoms: _607  and  _609
REMARK  253  A    between atoms: _609  and  _610
REMARK  254  A    between atoms: _609  and  _612
REMARK  255  A    between atoms: _612  and  _613
REMARK  256  A    between atoms: _616  and  _618
REMARK  257  A    between atoms: _618  and  _619
REMARK  258  A    between atoms: _618  and  _621
REMARK  259  A    between atoms: _621  and  _622
REMARK  260  A    between atoms: _625  and  _627
REMARK  261  A    between atoms: _627  and  _628
REMARK  262  A    between atoms: _627  and  _630
REMARK  263  A    between atoms: _630  and  _631
REMARK  264  A    between atoms: _633  and  _635
REMARK  265  A    between atoms: _635  and  _636
REMARK  266  A    between atoms: _635  and  _638
REMARK  267  A    between atoms: _641  and  _643
REMARK  268  A    between atoms: _643  and  _644
REMARK  269  A    between atoms: _643  and  _646
REMARK  270  A    between atoms: _646  and  _647
REMARK  271  A    between atoms: _647  and  _648
REMARK  272  A    between atoms: _653  and  _655
REMARK  273  A    between atoms: _655  and  _656
REMARK  274  A    between atoms: _655  and  _658
REMARK  275  A    between atoms: _662  and  _663
REMARK  276  A    between atoms: _668  and  _670
REMARK  277  A    between atoms: _670  and  _671
REMARK  278  A    between atoms: _670  and  _673
REMARK  279  A    between atoms: _673  and  _674
REMARK                            x       y       z     vdW  Elec       q    Type
REMARK                         _______ _______ _______ _____ _____    ______ ____
ROOT
ATOM      1  CA  ILE A   1      26.206  -6.846  18.246  0.00  0.00    +0.133 C 
ENDROOT
BRANCH   1   2
ATOM      2  N   ILE A   1      27.615  -6.889  18.619  0.00  0.00    -0.239 NA
ATOM      3  H   ILE A   1      28.311  -6.365  18.051  0.00  0.00    +0.142 HD
ENDBRANCH   1   2
BRANCH   1   4
ATOM      4  C   ILE A   1      25.803  -8.183  17.603  0.00  0.00    +0.224 C 
ATOM      5  O   ILE A   1      24.799  -8.779  17.967  0.00  0.00    -0.287 OA
ENDBRANCH   1   4
BRANCH   1   6
ATOM      6  CB  ILE A   1      25.937  -5.707  17.234  0.00  0.00    +0.023 C 
ATOM      7  CG2 ILE A   1      24.495  -5.780  16.737  0.00  0.00    +0.002 C 
BRANCH   6   8
ATOM      8  CG1 ILE A   1      26.241  -4.353  17.884  0.00  0.00    +0.002 C 
ATOM      9  CD1 ILE A   1      26.139  -3.171  16.931  0.00  0.00    +0.000 C 
ENDBRANCH   6   8
ENDBRANCH   1   6
TORSDOF 4
REMARK  Name = ../refined-set-2016/1z95/1z95_pocket.pdb
REMARK  279 active torsions:
REMARK  status: ('A' for Active; 'I' for Inactive)
REMARK    1  A    between atoms: _1  and  _3
REMARK    2  A    between atoms: _3  and  _4
REMARK    3  A    between atoms: _3  and  _6
REMARK    4  A    between atoms: _9  and  _11
REMARK    5  A    between atoms: _11  and  _12
REMARK    6  A    between atoms: _15  and  _17
REMARK    7  A    between atoms: _17  and  _18
REMARK    8  A    between atoms: _17  and  _20
REMARK    9  A    between atoms: _20  and  _21
REMARK   10  A    between atoms: _27  and  _29
REMARK   11  A    between atoms: _29  and  _30
REMARK   12  A    between atoms: _29  and  _32
REMARK   13  A    between atoms: _32  and  _33
REMARK   14  A    between atoms: _36  and  _38
REMARK   15  A    between atoms: _38  and  _39
REMARK   16  A    between atoms: _38  and  _41
REMARK   17  A    between atoms: _41  and  _42
REMARK   18  A    between atoms: _45  and  _47
REMARK   19  A    between atoms: _47  and  _48
REMARK   20  A    between atoms: _47  and  _50
REMARK   21  A    between atoms: _50  and  _51
REMARK   22  A    between atoms: _53  and  _55
REMARK   23  A    between atoms: _55  and  _56
REMARK   24  A    between atoms: _55  and  _58
REMARK   25  A    between atoms: _58  and  _59
REMARK   26  A    between atoms: _61  and  _63
REMARK   27  A    between atoms: _63  and  _64
REMARK   28  A    between atoms: _63  and  _66
REMARK   29  A    between atoms: _66  and  _67
REMARK   30  A    between atoms: _70  and  _72
REMARK   31  A    between atoms: _72  and  _73
REMARK   32  A    between atoms: _72  and  _75
REMARK   33  A    between atoms: _75  and  _76
REMARK   34  A    between atoms: _81  and  _83
REMARK   35  A    between atoms: _83  and  _84
REMARK   36  A    between atoms: _83  and  _86
REMARK   37  A    between atoms: _86  and  _87
REMARK   38  A    between atoms: _87  and  _88
REMARK   39  A    between atoms: _91  and  _93
REMARK   40  A    between atoms: _93  and  _94
REMARK   41  A    between atoms: _93  and  _96
REMARK   42  A    between atoms: _96  and  _97
REMARK   43  A    between atoms: _100  and  _102
REMARK   44  A    between atoms: _102  and  _103
REMARK   45  A    between atoms: _105  and  _107
REMARK   46  A    between atoms: _107  and  _108
REMARK   47  A    between atoms: _107  and  _110
REMARK   48  A    between atoms: _110  and  _111
REMARK   49  A    between atoms: _111  and  _112
REMARK   50  A    between atoms: _115  and  _117
REMARK   51  A    between atoms: _117  and  _118
REMARK   52  A    between atoms: _117  and  _120
REMARK   53  A    between atoms: _120  and  _121
REMARK   54  A    between atoms: _121  and  _122
REMARK   55  A    between atoms: _122  and  _123
REMARK   56  A    between atoms: _132  and  _134
REMARK   57  A    between atoms: _134  and  _135
REMARK   58  A    between atoms: _134  and  _137
REMARK   59  A    between atoms: _137  and  _138
REMARK   60  A    between atoms: _138  and  _139
REMARK   61  A    between atoms: _144  and  _146
REMARK   62  A    between atoms: _146  and  _147
REMARK   63  A    between atoms: _146  and  _149
REMARK   64  A    between atoms: _149  and  _150
REMARK   65  A    between atoms: _153  and  _155
REMARK   66  A    between atoms: _155  and  _156
REMARK   67  A    between atoms: _155  and  _158
REMARK   68  A    between atoms: _158  and  _159
REMARK   69  A    between atoms: _162  and  _164
REMARK   70  A    between atoms: _164  and  _165
REMARK   71  A    between atoms: _164  and  _167
REMARK   72  A    between atoms: _167  and  _168
REMARK   73  A    between atoms: _168  and  _169
REMARK   74  A    between atoms: _174  and  _176
REMARK   75  A    between atoms: _176  and  _177
REMARK   76  A    between atoms: _176  and  _179
REMARK   77  A    between atoms: _179  and  _180
REMARK   78  A    between atoms: _185  and  _186
REMARK   79  A    between atoms: _188  and  _190
REMARK   80  A    between atoms: _190  and  _191
REMARK   81  A    between atoms: _190  and  _193
REMARK   82  A    between atoms: _193  and  _194
REMARK   83  A    between atoms: _196  and  _198
REMARK   84  A    between atoms: _198  and  _199
REMARK   85  A    between atoms: _198  and  _201
REMARK   86  A    between atoms: _201  and  _202
REMARK   87  A    between atoms: _205  and  _207
REMARK   88  A    between atoms: _207  and  _208
REMARK   89  A    between atoms: _207  and  _210
REMARK   90  A    between atoms: _210  and  _211
REMARK   91  A    between atoms: _211  and  _212
REMARK   92  A    between atoms: _214  and  _216
REMARK   93  A    between atoms: _216  and  _217
REMARK   94  A    between atoms: _219  and  _221
REMARK   95  A    between atoms: _221  and  _222
REMARK   96  A    between atoms: _221  and  _224
REMARK   97  A    between atoms: _224  and  _225
REMARK   98  A    between atoms: _228  and  _230
REMARK   99  A    between atoms: _230  and  _231
REMARK  100  A    between atoms: _230  and  _233
REMARK  101  A    between atoms: _233  and  _234
REMARK  102  A    between atoms: _234  and  _235
REMARK  103  A    between atoms: _237  and  _239
REMARK  104  A    between atoms: _239  and  _240
REMARK  105  A    between atoms: _239  and  _242
REMARK  106  A    between atoms: _245  and  _247
REMARK  107  A    between atoms: _247  and  _248
REMARK  108  A    between atoms: _247  and  _250
REMARK  109  A    between atoms: _250  and  _251
REMARK  110  A    between atoms: _257  and  _259
REMARK  111  A    between atoms: _259  and  _260
REMARK  112  A    between atoms: _263  and  _265
REMARK  113  A    between atoms: _265  and  _266
REMARK  114  A    between atoms: _265  and  _268
REMARK  115  A    between atoms: _268  and  _269
REMARK  116  A    between atoms: _269  and  _270
REMARK  117  A    between atoms: _272  and  _274
REMARK  118  A    between atoms: _274  and  _275
REMARK  119  A    between atoms: _277  and  _279
REMARK  120  A    between atoms: _279  and  _280
REMARK  121  A    between atoms: _279  and  _282
REMARK  122  A    between atoms: _282  and  _283
REMARK  123  A    between atoms: _293  and  _295
REMARK  124  A    between atoms: _295  and  _296
REMARK  125  A    between atoms: _295  and  _298
REMARK  126  A    between atoms: _298  and  _299
REMARK  127  A    between atoms: _299  and  _300
REMARK  128  A    between atoms: _300  and  _301
REMARK  129  A    between atoms: _310  and  _312
REMARK  130  A    between atoms: _312  and  _313
REMARK  131  A    between atoms: _312  and  _315
REMARK  132  A    between atoms: _315  and  _316
REMARK  133  A    between atoms: _318  and  _320
REMARK  134  A    between atoms: _320  and  _321
REMARK  135  A    between atoms: _320  and  _323
REMARK  136  A    between atoms: _323  and  _324
REMARK  137  A    between atoms: _327  and  _329
REMARK  138  A    between atoms: _329  and  _330
REMARK  139  A    between atoms: _329  and  _332
REMARK  140  A    between atoms: _332  and  _333
REMARK  141  A    between atoms: _338  and  _339
REMARK  142  A    between atoms: _341  and  _343
REMARK  143  A    between atoms: _343  and  _344
REMARK  144  A    between atoms: _343  and  _346
REMARK  145  A    between atoms: _346  and  _347
REMARK  146  A    between atoms: _353  and  _355
REMARK  147  A    between atoms: _355  and  _356
REMARK  148  A    between atoms: _359  and  _361
REMARK  149  A    between atoms: _361  and  _362
REMARK  150  A    between atoms: _361  and  _364
REMARK  151  A    between atoms: _364  and  _365
REMARK  152  A    between atoms: _368  and  _370
REMARK  153  A    between atoms: _370  and  _371
REMARK  154  A    between atoms: _370  and  _373
REMARK  155  A    between atoms: _373  and  _374
REMARK  156  A    between atoms: _380  and  _382
REMARK  157  A    between atoms: _382  and  _383
REMARK  158  A    between atoms: _382  and  _385
REMARK  159  A    between atoms: _385  and  _386
REMARK  160  A    between atoms: _388  and  _390
REMARK  161  A    between atoms: _390  and  _391
REMARK  162  A    between atoms: _390  and  _393
REMARK  163  A    between atoms: _393  and  _394
REMARK  164  A    between atoms: _394  and  _395
REMARK  165  A    between atoms: _397  and  _399
REMARK  166  A    between atoms: _399  and  _400
REMARK  167  A    between atoms: _399  and  _402
REMARK  168  A    between atoms: _402  and  _403
REMARK  169  A    between atoms: _403  and  _404
REMARK  170  A    between atoms: _409  and  _411
REMARK  171  A    between atoms: _411  and  _412
REMARK  172  A    between atoms: _411  and  _414
REMARK  173  A    between atoms: _416  and  _418
REMARK  174  A    between atoms: _418  and  _419
REMARK  175  A    between atoms: _418  and  _421
REMARK  176  A    between atoms: _421  and  _422
REMARK  177  A    between atoms: _422  and  _423
REMARK  178  A    between atoms: _425  and  _427
REMARK  179  A    between atoms: _427  and  _428
REMARK  180  A    between atoms: _427  and  _430
REMARK  181  A    between atoms: _430  and  _431
REMARK  182  A    between atoms: _434  and  _436
REMARK  183  A    between atoms: _436  and  _437
REMARK  184  A    between atoms: _436  and  _439
REMARK  185  A    between atoms: _439  and  _440
REMARK  186  A    between atoms: _443  and  _445
REMARK  187  A    between atoms: _445  and  _446
REMARK  188  A    between atoms: _445  and  _448
REMARK  189  A    between atoms: _451  and  _453
REMARK  190  A    between atoms: _453  and  _454
REMARK  191  A    between atoms: _453  and  _456
REMARK  192  A    between atoms: _456  and  _457
REMARK  193  A    between atoms: _460  and  _462
REMARK  194  A    between atoms: _462  and  _463
REMARK  195  A    between atoms: _466  and  _468
REMARK  196  A    between atoms: _468  and  _469
REMARK  197  A    between atoms: _468  and  _471
REMARK  198  A    between atoms: _471  and  _472
REMARK  199  A    between atoms: _475  and  _477
REMARK  200  A    between atoms: _477  and  _478
REMARK  201  A    between atoms: _477  and  _480
REMARK  202  A    between atoms: _480  and  _481
REMARK  203  A    between atoms: _486  and  _488
REMARK  204  A    between atoms: _488  and  _489
REMARK  205  A    between atoms: _488  and  _491
REMARK  206  A    between atoms: _491  and  _492
REMARK  207  A    between atoms: _498  and  _500
REMARK  208  A    between atoms: _500  and  _501
REMARK  209  A    between atoms: _500  and  _503
REMARK  210  A    between atoms: _503  and  _504
REMARK  211  A    between atoms: _507  and  _509
REMARK  212  A    between atoms: _509  and  _510
REMARK  213  A    between atoms: _509  and  _512
REMARK  214  A    between atoms: _512  and  _513
REMARK  215  A    between atoms: _519  and  _521
REMARK  216  A    between atoms: _521  and  _522
REMARK  217  A    between atoms: _521  and  _524
REMARK  218  A    between atoms: _524  and  _525
REMARK  219  A    between atoms: _528  and  _530
REMARK  220  A    between atoms: _530  and  _531
REMARK  221  A    between atoms: _530  and  _533
REMARK  222  A    between atoms: _533  and  _534
REMARK  223  A    between atoms: _537  and  _539
REMARK  224  A    between atoms: _539  and  _540
REMARK  225  A    between atoms: _539  and  _542
REMARK  226  A    between atoms: _545  and  _547
REMARK  227  A    between atoms: _547  and  _548
REMARK  228  A    between atoms: _547  and  _550
REMARK  229  A    between atoms: _550  and  _551
REMARK  230  A    between atoms: _554  and  _556
REMARK  231  A    between atoms: _556  and  _557
REMARK  232  A    between atoms: _556  and  _559
REMARK  233  A    between atoms: _559  and  _560
REMARK  234  A    between atoms: _567  and  _568
REMARK  235  A    between atoms: _573  and  _575
REMARK  236  A    between atoms: _575  and  _576
REMARK  237  A    between atoms: _575  and  _578
REMARK  238  A    between atoms: _578  and  _579
REMARK  239  A    between atoms: _579  and  _580
REMARK  240  A    between atoms: _582  and  _584
REMARK  241  A    between atoms: _584  and  _585
REMARK  242  A    between atoms: _584  and  _587
REMARK  243  A    between atoms: _587  and  _588
REMARK  244  A    between atoms: _588  and  _589
REMARK  245  A    between atoms: _591  and  _593
REMARK  246  A    between atoms: _593  and  _594
REMARK  247  A    between atoms: _597  and  _599
REMARK  248  A    between atoms: _599  and  _600
REMARK  249  A    between atoms: _599  and  _602
REMARK  250  A    between atoms: _602  and  _603
REMARK  251  A    between atoms: _603  and  _604
REMARK  252  A    between atoms: _607  and  _609
REMARK  253  A    between atoms: _609  and  _610
REMARK  254  A    between atoms: _609  and  _612
REMARK  255  A    between atoms: _612  and  _613
REMARK  256  A    between atoms: _616  and  _618
REMARK  257  A    between atoms: _618  and  _619
REMARK  258  A    between atoms: _618  and  _621
REMARK  259  A    between atoms: _621  and  _622
REMARK  260  A    between atoms: _625  and  _627
REMARK  261  A    between atoms: _627  and  _628
REMARK  262  A    between atoms: _627  and  _630
REMARK  263  A    between atoms: _630  and  _631
REMARK  264  A    between atoms: _633  and  _635
REMARK  265  A    between atoms: _635  and  _636
REMARK  266  A    between atoms: _635  and  _638
REMARK  267  A    between atoms: _641  and  _643
REMARK  268  A    between atoms: _643  and  _644
REMARK  269  A    between atoms: _643  and  _646
REMARK  270  A    between atoms: _646  and  _647
REMARK  271  A    between atoms: _647  and  _648
REMARK  272  A    between atoms: _653  and  _655
REMARK  273  A    between atoms: _655  and  _656
REMARK  274  A    between atoms: _655  and  _658
REMARK  275  A    between atoms: _662  and  _663
REMARK  276  A    between atoms: _668  and  _670
REMARK  277  A    between atoms: _670  and  _671
REMARK  278  A    between atoms: _670  and  _673
REMARK  279  A    between atoms: _673  and  _674
REMARK                            x       y       z     vdW  Elec       q    Type
REMARK                         _______ _______ _______ _____ _____    ______ ____
ROOT
ATOM      1  O   HOH     1      26.765   0.851  14.181  0.00  0.00    +0.000 OA
ENDROOT
TORSDOF 0
REMARK  Name = ../refined-set-2016/1z95/1z95_pocket.pdb
REMARK  279 active torsions:
REMARK  status: ('A' for Active; 'I' for Inactive)
REMARK    1  A    between atoms: _1  and  _3
REMARK    2  A    between atoms: _3  and  _4
REMARK    3  A    between atoms: _3  and  _6
REMARK    4  A    between atoms: _9  and  _11
REMARK    5  A    between atoms: _11  and  _12
REMARK    6  A    between atoms: _15  and  _17
REMARK    7  A    between atoms: _17  and  _18
REMARK    8  A    between atoms: _17  and  _20
REMARK    9  A    between atoms: _20  and  _21
REMARK   10  A    between atoms: _27  and  _29
REMARK   11  A    between atoms: _29  and  _30
REMARK   12  A    between atoms: _29  and  _32
REMARK   13  A    between atoms: _32  and  _33
REMARK   14  A    between atoms: _36  and  _38
REMARK   15  A    between atoms: _38  and  _39
REMARK   16  A    between atoms: _38  and  _41
REMARK   17  A    between atoms: _41  and  _42
REMARK   18  A    between atoms: _45  and  _47
REMARK   19  A    between atoms: _47  and  _48
REMARK   20  A    between atoms: _47  and  _50
REMARK   21  A    between atoms: _50  and  _51
REMARK   22  A    between atoms: _53  and  _55
REMARK   23  A    between atoms: _55  and  _56
REMARK   24  A    between atoms: _55  and  _58
REMARK   25  A    between atoms: _58  and  _59
REMARK   26  A    between atoms: _61  and  _63
REMARK   27  A    between atoms: _63  and  _64
REMARK   28  A    between atoms: _63  and  _66
REMARK   29  A    between atoms: _66  and  _67
REMARK   30  A    between atoms: _70  and  _72
REMARK   31  A    between atoms: _72  and  _73
REMARK   32  A    between atoms: _72  and  _75
REMARK   33  A    between atoms: _75  and  _76
REMARK   34  A    between atoms: _81  and  _83
REMARK   35  A    between atoms: _83  and  _84
REMARK   36  A    between atoms: _83  and  _86
REMARK   37  A    between atoms: _86  and  _87
REMARK   38  A    between atoms: _87  and  _88
REMARK   39  A    between atoms: _91  and  _93
REMARK   40  A    between atoms: _93  and  _94
REMARK   41  A    between atoms: _93  and  _96
REMARK   42  A    between atoms: _96  and  _97
REMARK   43  A    between atoms: _100  and  _102
REMARK   44  A    between atoms: _102  and  _103
REMARK   45  A    between atoms: _105  and  _107
REMARK   46  A    between atoms: _107  and  _108
REMARK   47  A    between atoms: _107  and  _110
REMARK   48  A    between atoms: _110  and  _111
REMARK   49  A    between atoms: _111  and  _112
REMARK   50  A    between atoms: _115  and  _117
REMARK   51  A    between atoms: _117  and  _118
REMARK   52  A    between atoms: _117  and  _120
REMARK   53  A    between atoms: _120  and  _121
REMARK   54  A    between atoms: _121  and  _122
REMARK   55  A    between atoms: _122  and  _123
REMARK   56  A    between atoms: _132  and  _134
REMARK   57  A    between atoms: _134  and  _135
REMARK   58  A    between atoms: _134  and  _137
REMARK   59  A    between atoms: _137  and  _138
REMARK   60  A    between atoms: _138  and  _139
REMARK   61  A    between atoms: _144  and  _146
REMARK   62  A    between atoms: _146  and  _147
REMARK   63  A    between atoms: _146  and  _149
REMARK   64  A    between atoms: _149  and  _150
REMARK   65  A    between atoms: _153  and  _155
REMARK   66  A    between atoms: _155  and  _156
REMARK   67  A    between atoms: _155  and  _158
REMARK   68  A    between atoms: _158  and  _159
REMARK   69  A    between atoms: _162  and  _164
REMARK   70  A    between atoms: _164  and  _165
REMARK   71  A    between atoms: _164  and  _167
REMARK   72  A    between atoms: _167  and  _168
REMARK   73  A    between atoms: _168  and  _169
REMARK   74  A    between atoms: _174  and  _176
REMARK   75  A    between atoms: _176  and  _177
REMARK   76  A    between atoms: _176  and  _179
REMARK   77  A    between atoms: _179  and  _180
REMARK   78  A    between atoms: _185  and  _186
REMARK   79  A    between atoms: _188  and  _190
REMARK   80  A    between atoms: _190  and  _191
REMARK   81  A    between atoms: _190  and  _193
REMARK   82  A    between atoms: _193  and  _194
REMARK   83  A    between atoms: _196  and  _198
REMARK   84  A    between atoms: _198  and  _199
REMARK   85  A    between atoms: _198  and  _201
REMARK   86  A    between atoms: _201  and  _202
REMARK   87  A    between atoms: _205  and  _207
REMARK   88  A    between atoms: _207  and  _208
REMARK   89  A    between atoms: _207  and  _210
REMARK   90  A    between atoms: _210  and  _211
REMARK   91  A    between atoms: _211  and  _212
REMARK   92  A    between atoms: _214  and  _216
REMARK   93  A    between atoms: _216  and  _217
REMARK   94  A    between atoms: _219  and  _221
REMARK   95  A    between atoms: _221  and  _222
REMARK   96  A    between atoms: _221  and  _224
REMARK   97  A    between atoms: _224  and  _225
REMARK   98  A    between atoms: _228  and  _230
REMARK   99  A    between atoms: _230  and  _231
REMARK  100  A    between atoms: _230  and  _233
REMARK  101  A    between atoms: _233  and  _234
REMARK  102  A    between atoms: _234  and  _235
REMARK  103  A    between atoms: _237  and  _239
REMARK  104  A    between atoms: _239  and  _240
REMARK  105  A    between atoms: _239  and  _242
REMARK  106  A    between atoms: _245  and  _247
REMARK  107  A    between atoms: _247  and  _248
REMARK  108  A    between atoms: _247  and  _250
REMARK  109  A    between atoms: _250  and  _251
REMARK  110  A    between atoms: _257  and  _259
REMARK  111  A    between atoms: _259  and  _260
REMARK  112  A    between atoms: _263  and  _265
REMARK  113  A    between atoms: _265  and  _266
REMARK  114  A    between atoms: _265  and  _268
REMARK  115  A    between atoms: _268  and  _269
REMARK  116  A    between atoms: _269  and  _270
REMARK  117  A    between atoms: _272  and  _274
REMARK  118  A    between atoms: _274  and  _275
REMARK  119  A    between atoms: _277  and  _279
REMARK  120  A    between atoms: _279  and  _280
REMARK  121  A    between atoms: _279  and  _282
REMARK  122  A    between atoms: _282  and  _283
REMARK  123  A    between atoms: _293  and  _295
REMARK  124  A    between atoms: _295  and  _296
REMARK  125  A    between atoms: _295  and  _298
REMARK  126  A    between atoms: _298  and  _299
REMARK  127  A    between atoms: _299  and  _300
REMARK  128  A    between atoms: _300  and  _301
REMARK  129  A    between atoms: _310  and  _312
REMARK  130  A    between atoms: _312  and  _313
REMARK  131  A    between atoms: _312  and  _315
REMARK  132  A    between atoms: _315  and  _316
REMARK  133  A    between atoms: _318  and  _320
REMARK  134  A    between atoms: _320  and  _321
REMARK  135  A    between atoms: _320  and  _323
REMARK  136  A    between atoms: _323  and  _324
REMARK  137  A    between atoms: _327  and  _329
REMARK  138  A    between atoms: _329  and  _330
REMARK  139  A    between atoms: _329  and  _332
REMARK  140  A    between atoms: _332  and  _333
REMARK  141  A    between atoms: _338  and  _339
REMARK  142  A    between atoms: _341  and  _343
REMARK  143  A    between atoms: _343  and  _344
REMARK  144  A    between atoms: _343  and  _346
REMARK  145  A    between atoms: _346  and  _347
REMARK  146  A    between atoms: _353  and  _355
REMARK  147  A    between atoms: _355  and  _356
REMARK  148  A    between atoms: _359  and  _361
REMARK  149  A    between atoms: _361  and  _362
REMARK  150  A    between atoms: _361  and  _364
REMARK  151  A    between atoms: _364  and  _365
REMARK  152  A    between atoms: _368  and  _370
REMARK  153  A    between atoms: _370  and  _371
REMARK  154  A    between atoms: _370  and  _373
REMARK  155  A    between atoms: _373  and  _374
REMARK  156  A    between atoms: _380  and  _382
REMARK  157  A    between atoms: _382  and  _383
REMARK  158  A    between atoms: _382  and  _385
REMARK  159  A    between atoms: _385  and  _386
REMARK  160  A    between atoms: _388  and  _390
REMARK  161  A    between atoms: _390  and  _391
REMARK  162  A    between atoms: _390  and  _393
REMARK  163  A    between atoms: _393  and  _394
REMARK  164  A    between atoms: _394  and  _395
REMARK  165  A    between atoms: _397  and  _399
REMARK  166  A    between atoms: _399  and  _400
REMARK  167  A    between atoms: _399  and  _402
REMARK  168  A    between atoms: _402  and  _403
REMARK  169  A    between atoms: _403  and  _404
REMARK  170  A    between atoms: _409  and  _411
REMARK  171  A    between atoms: _411  and  _412
REMARK  172  A    between atoms: _411  and  _414
REMARK  173  A    between atoms: _416  and  _418
REMARK  174  A    between atoms: _418  and  _419
REMARK  175  A    between atoms: _418  and  _421
REMARK  176  A    between atoms: _421  and  _422
REMARK  177  A    between atoms: _422  and  _423
REMARK  178  A    between atoms: _425  and  _427
REMARK  179  A    between atoms: _427  and  _428
REMARK  180  A    between atoms: _427  and  _430
REMARK  181  A    between atoms: _430  and  _431
REMARK  182  A    between atoms: _434  and  _436
REMARK  183  A    between atoms: _436  and  _437
REMARK  184  A    between atoms: _436  and  _439
REMARK  185  A    between atoms: _439  and  _440
REMARK  186  A    between atoms: _443  and  _445
REMARK  187  A    between atoms: _445  and  _446
REMARK  188  A    between atoms: _445  and  _448
REMARK  189  A    between atoms: _451  and  _453
REMARK  190  A    between atoms: _453  and  _454
REMARK  191  A    between atoms: _453  and  _456
REMARK  192  A    between atoms: _456  and  _457
REMARK  193  A    between atoms: _460  and  _462
REMARK  194  A    between atoms: _462  and  _463
REMARK  195  A    between atoms: _466  and  _468
REMARK  196  A    between atoms: _468  and  _469
REMARK  197  A    between atoms: _468  and  _471
REMARK  198  A    between atoms: _471  and  _472
REMARK  199  A    between atoms: _475  and  _477
REMARK  200  A    between atoms: _477  and  _478
REMARK  201  A    between atoms: _477  and  _480
REMARK  202  A    between atoms: _480  and  _481
REMARK  203  A    between atoms: _486  and  _488
REMARK  204  A    between atoms: _488  and  _489
REMARK  205  A    between atoms: _488  and  _491
REMARK  206  A    between atoms: _491  and  _492
REMARK  207  A    between atoms: _498  and  _500
REMARK  208  A    between atoms: _500  and  _501
REMARK  209  A    between atoms: _500  and  _503
REMARK  210  A    between atoms: _503  and  _504
REMARK  211  A    between atoms: _507  and  _509
REMARK  212  A    between atoms: _509  and  _510
REMARK  213  A    between atoms: _509  and  _512
REMARK  214  A    between atoms: _512  and  _513
REMARK  215  A    between atoms: _519  and  _521
REMARK  216  A    between atoms: _521  and  _522
REMARK  217  A    between atoms: _521  and  _524
REMARK  218  A    between atoms: _524  and  _525
REMARK  219  A    between atoms: _528  and  _530
REMARK  220  A    between atoms: _530  and  _531
REMARK  221  A    between atoms: _530  and  _533
REMARK  222  A    between atoms: _533  and  _534
REMARK  223  A    between atoms: _537  and  _539
REMARK  224  A    between atoms: _539  and  _540
REMARK  225  A    between atoms: _539  and  _542
REMARK  226  A    between atoms: _545  and  _547
REMARK  227  A    between atoms: _547  and  _548
REMARK  228  A    between atoms: _547  and  _550
REMARK  229  A    between atoms: _550  and  _551
REMARK  230  A    between atoms: _554  and  _556
REMARK  231  A    between atoms: _556  and  _557
REMARK  232  A    between atoms: _556  and  _559
REMARK  233  A    between atoms: _559  and  _560
REMARK  234  A    between atoms: _567  and  _568
REMARK  235  A    between atoms: _573  and  _575
REMARK  236  A    between atoms: _575  and  _576
REMARK  237  A    between atoms: _575  and  _578
REMARK  238  A    between atoms: _578  and  _579
REMARK  239  A    between atoms: _579  and  _580
REMARK  240  A    between atoms: _582  and  _584
REMARK  241  A    between atoms: _584  and  _585
REMARK  242  A    between atoms: _584  and  _587
REMARK  243  A    between atoms: _587  and  _588
REMARK  244  A    between atoms: _588  and  _589
REMARK  245  A    between atoms: _591  and  _593
REMARK  246  A    between atoms: _593  and  _594
REMARK  247  A    between atoms: _597  and  _599
REMARK  248  A    between atoms: _599  and  _600
REMARK  249  A    between atoms: _599  and  _602
REMARK  250  A    between atoms: _602  and  _603
REMARK  251  A    between atoms: _603  and  _604
REMARK  252  A    between atoms: _607  and  _609
REMARK  253  A    between atoms: _609  and  _610
REMARK  254  A    between atoms: _609  and  _612
REMARK  255  A    between atoms: _612  and  _613
REMARK  256  A    between atoms: _616  and  _618
REMARK  257  A    between atoms: _618  and  _619
REMARK  258  A    between atoms: _618  and  _621
REMARK  259  A    between atoms: _621  and  _622
REMARK  260  A    between atoms: _625  and  _627
REMARK  261  A    between atoms: _627  and  _628
REMARK  262  A    between atoms: _627  and  _630
REMARK  263  A    between atoms: _630  and  _631
REMARK  264  A    between atoms: _633  and  _635
REMARK  265  A    between atoms: _635  and  _636
REMARK  266  A    between atoms: _635  and  _638
REMARK  267  A    between atoms: _641  and  _643
REMARK  268  A    between atoms: _643  and  _644
REMARK  269  A    between atoms: _643  and  _646
REMARK  270  A    between atoms: _646  and  _647
REMARK  271  A    between atoms: _647  and  _648
REMARK  272  A    between atoms: _653  and  _655
REMARK  273  A    between atoms: _655  and  _656
REMARK  274  A    between atoms: _655  and  _658
REMARK  275  A    between atoms: _662  and  _663
REMARK  276  A    between atoms: _668  and  _670
REMARK  277  A    between atoms: _670  and  _671
REMARK  278  A    between atoms: _670  and  _673
REMARK  279  A    between atoms: _673  and  _674
REMARK                            x       y       z     vdW  Elec       q    Type
REMARK                         _______ _______ _______ _____ _____    ______ ____
ROOT
ATOM      1  O   HOH     1      23.235   0.858  14.456  0.00  0.00    +0.000 OA
ENDROOT
TORSDOF 0
REMARK  Name = ../refined-set-2016/1z95/1z95_pocket.pdb
REMARK  279 active torsions:
REMARK  status: ('A' for Active; 'I' for Inactive)
REMARK    1  A    between atoms: _1  and  _3
REMARK    2  A    between atoms: _3  and  _4
REMARK    3  A    between atoms: _3  and  _6
REMARK    4  A    between atoms: _9  and  _11
REMARK    5  A    between atoms: _11  and  _12
REMARK    6  A    between atoms: _15  and  _17
REMARK    7  A    between atoms: _17  and  _18
REMARK    8  A    between atoms: _17  and  _20
REMARK    9  A    between atoms: _20  and  _21
REMARK   10  A    between atoms: _27  and  _29
REMARK   11  A    between atoms: _29  and  _30
REMARK   12  A    between atoms: _29  and  _32
REMARK   13  A    between atoms: _32  and  _33
REMARK   14  A    between atoms: _36  and  _38
REMARK   15  A    between atoms: _38  and  _39
REMARK   16  A    between atoms: _38  and  _41
REMARK   17  A    between atoms: _41  and  _42
REMARK   18  A    between atoms: _45  and  _47
REMARK   19  A    between atoms: _47  and  _48
REMARK   20  A    between atoms: _47  and  _50
REMARK   21  A    between atoms: _50  and  _51
REMARK   22  A    between atoms: _53  and  _55
REMARK   23  A    between atoms: _55  and  _56
REMARK   24  A    between atoms: _55  and  _58
REMARK   25  A    between atoms: _58  and  _59
REMARK   26  A    between atoms: _61  and  _63
REMARK   27  A    between atoms: _63  and  _64
REMARK   28  A    between atoms: _63  and  _66
REMARK   29  A    between atoms: _66  and  _67
REMARK   30  A    between atoms: _70  and  _72
REMARK   31  A    between atoms: _72  and  _73
REMARK   32  A    between atoms: _72  and  _75
REMARK   33  A    between atoms: _75  and  _76
REMARK   34  A    between atoms: _81  and  _83
REMARK   35  A    between atoms: _83  and  _84
REMARK   36  A    between atoms: _83  and  _86
REMARK   37  A    between atoms: _86  and  _87
REMARK   38  A    between atoms: _87  and  _88
REMARK   39  A    between atoms: _91  and  _93
REMARK   40  A    between atoms: _93  and  _94
REMARK   41  A    between atoms: _93  and  _96
REMARK   42  A    between atoms: _96  and  _97
REMARK   43  A    between atoms: _100  and  _102
REMARK   44  A    between atoms: _102  and  _103
REMARK   45  A    between atoms: _105  and  _107
REMARK   46  A    between atoms: _107  and  _108
REMARK   47  A    between atoms: _107  and  _110
REMARK   48  A    between atoms: _110  and  _111
REMARK   49  A    between atoms: _111  and  _112
REMARK   50  A    between atoms: _115  and  _117
REMARK   51  A    between atoms: _117  and  _118
REMARK   52  A    between atoms: _117  and  _120
REMARK   53  A    between atoms: _120  and  _121
REMARK   54  A    between atoms: _121  and  _122
REMARK   55  A    between atoms: _122  and  _123
REMARK   56  A    between atoms: _132  and  _134
REMARK   57  A    between atoms: _134  and  _135
REMARK   58  A    between atoms: _134  and  _137
REMARK   59  A    between atoms: _137  and  _138
REMARK   60  A    between atoms: _138  and  _139
REMARK   61  A    between atoms: _144  and  _146
REMARK   62  A    between atoms: _146  and  _147
REMARK   63  A    between atoms: _146  and  _149
REMARK   64  A    between atoms: _149  and  _150
REMARK   65  A    between atoms: _153  and  _155
REMARK   66  A    between atoms: _155  and  _156
REMARK   67  A    between atoms: _155  and  _158
REMARK   68  A    between atoms: _158  and  _159
REMARK   69  A    between atoms: _162  and  _164
REMARK   70  A    between atoms: _164  and  _165
REMARK   71  A    between atoms: _164  and  _167
REMARK   72  A    between atoms: _167  and  _168
REMARK   73  A    between atoms: _168  and  _169
REMARK   74  A    between atoms: _174  and  _176
REMARK   75  A    between atoms: _176  and  _177
REMARK   76  A    between atoms: _176  and  _179
REMARK   77  A    between atoms: _179  and  _180
REMARK   78  A    between atoms: _185  and  _186
REMARK   79  A    between atoms: _188  and  _190
REMARK   80  A    between atoms: _190  and  _191
REMARK   81  A    between atoms: _190  and  _193
REMARK   82  A    between atoms: _193  and  _194
REMARK   83  A    between atoms: _196  and  _198
REMARK   84  A    between atoms: _198  and  _199
REMARK   85  A    between atoms: _198  and  _201
REMARK   86  A    between atoms: _201  and  _202
REMARK   87  A    between atoms: _205  and  _207
REMARK   88  A    between atoms: _207  and  _208
REMARK   89  A    between atoms: _207  and  _210
REMARK   90  A    between atoms: _210  and  _211
REMARK   91  A    between atoms: _211  and  _212
REMARK   92  A    between atoms: _214  and  _216
REMARK   93  A    between atoms: _216  and  _217
REMARK   94  A    between atoms: _219  and  _221
REMARK   95  A    between atoms: _221  and  _222
REMARK   96  A    between atoms: _221  and  _224
REMARK   97  A    between atoms: _224  and  _225
REMARK   98  A    between atoms: _228  and  _230
REMARK   99  A    between atoms: _230  and  _231
REMARK  100  A    between atoms: _230  and  _233
REMARK  101  A    between atoms: _233  and  _234
REMARK  102  A    between atoms: _234  and  _235
REMARK  103  A    between atoms: _237  and  _239
REMARK  104  A    between atoms: _239  and  _240
REMARK  105  A    between atoms: _239  and  _242
REMARK  106  A    between atoms: _245  and  _247
REMARK  107  A    between atoms: _247  and  _248
REMARK  108  A    between atoms: _247  and  _250
REMARK  109  A    between atoms: _250  and  _251
REMARK  110  A    between atoms: _257  and  _259
REMARK  111  A    between atoms: _259  and  _260
REMARK  112  A    between atoms: _263  and  _265
REMARK  113  A    between atoms: _265  and  _266
REMARK  114  A    between atoms: _265  and  _268
REMARK  115  A    between atoms: _268  and  _269
REMARK  116  A    between atoms: _269  and  _270
REMARK  117  A    between atoms: _272  and  _274
REMARK  118  A    between atoms: _274  and  _275
REMARK  119  A    between atoms: _277  and  _279
REMARK  120  A    between atoms: _279  and  _280
REMARK  121  A    between atoms: _279  and  _282
REMARK  122  A    between atoms: _282  and  _283
REMARK  123  A    between atoms: _293  and  _295
REMARK  124  A    between atoms: _295  and  _296
REMARK  125  A    between atoms: _295  and  _298
REMARK  126  A    between atoms: _298  and  _299
REMARK  127  A    between atoms: _299  and  _300
REMARK  128  A    between atoms: _300  and  _301
REMARK  129  A    between atoms: _310  and  _312
REMARK  130  A    between atoms: _312  and  _313
REMARK  131  A    between atoms: _312  and  _315
REMARK  132  A    between atoms: _315  and  _316
REMARK  133  A    between atoms: _318  and  _320
REMARK  134  A    between atoms: _320  and  _321
REMARK  135  A    between atoms: _320  and  _323
REMARK  136  A    between atoms: _323  and  _324
REMARK  137  A    between atoms: _327  and  _329
REMARK  138  A    between atoms: _329  and  _330
REMARK  139  A    between atoms: _329  and  _332
REMARK  140  A    between atoms: _332  and  _333
REMARK  141  A    between atoms: _338  and  _339
REMARK  142  A    between atoms: _341  and  _343
REMARK  143  A    between atoms: _343  and  _344
REMARK  144  A    between atoms: _343  and  _346
REMARK  145  A    between atoms: _346  and  _347
REMARK  146  A    between atoms: _353  and  _355
REMARK  147  A    between atoms: _355  and  _356
REMARK  148  A    between atoms: _359  and  _361
REMARK  149  A    between atoms: _361  and  _362
REMARK  150  A    between atoms: _361  and  _364
REMARK  151  A    between atoms: _364  and  _365
REMARK  152  A    between atoms: _368  and  _370
REMARK  153  A    between atoms: _370  and  _371
REMARK  154  A    between atoms: _370  and  _373
REMARK  155  A    between atoms: _373  and  _374
REMARK  156  A    between atoms: _380  and  _382
REMARK  157  A    between atoms: _382  and  _383
REMARK  158  A    between atoms: _382  and  _385
REMARK  159  A    between atoms: _385  and  _386
REMARK  160  A    between atoms: _388  and  _390
REMARK  161  A    between atoms: _390  and  _391
REMARK  162  A    between atoms: _390  and  _393
REMARK  163  A    between atoms: _393  and  _394
REMARK  164  A    between atoms: _394  and  _395
REMARK  165  A    between atoms: _397  and  _399
REMARK  166  A    between atoms: _399  and  _400
REMARK  167  A    between atoms: _399  and  _402
REMARK  168  A    between atoms: _402  and  _403
REMARK  169  A    between atoms: _403  and  _404
REMARK  170  A    between atoms: _409  and  _411
REMARK  171  A    between atoms: _411  and  _412
REMARK  172  A    between atoms: _411  and  _414
REMARK  173  A    between atoms: _416  and  _418
REMARK  174  A    between atoms: _418  and  _419
REMARK  175  A    between atoms: _418  and  _421
REMARK  176  A    between atoms: _421  and  _422
REMARK  177  A    between atoms: _422  and  _423
REMARK  178  A    between atoms: _425  and  _427
REMARK  179  A    between atoms: _427  and  _428
REMARK  180  A    between atoms: _427  and  _430
REMARK  181  A    between atoms: _430  and  _431
REMARK  182  A    between atoms: _434  and  _436
REMARK  183  A    between atoms: _436  and  _437
REMARK  184  A    between atoms: _436  and  _439
REMARK  185  A    between atoms: _439  and  _440
REMARK  186  A    between atoms: _443  and  _445
REMARK  187  A    between atoms: _445  and  _446
REMARK  188  A    between atoms: _445  and  _448
REMARK  189  A    between atoms: _451  and  _453
REMARK  190  A    between atoms: _453  and  _454
REMARK  191  A    between atoms: _453  and  _456
REMARK  192  A    between atoms: _456  and  _457
REMARK  193  A    between atoms: _460  and  _462
REMARK  194  A    between atoms: _462  and  _463
REMARK  195  A    between atoms: _466  and  _468
REMARK  196  A    between atoms: _468  and  _469
REMARK  197  A    between atoms: _468  and  _471
REMARK  198  A    between atoms: _471  and  _472
REMARK  199  A    between atoms: _475  and  _477
REMARK  200  A    between atoms: _477  and  _478
REMARK  201  A    between atoms: _477  and  _480
REMARK  202  A    between atoms: _480  and  _481
REMARK  203  A    between atoms: _486  and  _488
REMARK  204  A    between atoms: _488  and  _489
REMARK  205  A    between atoms: _488  and  _491
REMARK  206  A    between atoms: _491  and  _492
REMARK  207  A    between atoms: _498  and  _500
REMARK  208  A    between atoms: _500  and  _501
REMARK  209  A    between atoms: _500  and  _503
REMARK  210  A    between atoms: _503  and  _504
REMARK  211  A    between atoms: _507  and  _509
REMARK  212  A    between atoms: _509  and  _510
REMARK  213  A    between atoms: _509  and  _512
REMARK  214  A    between atoms: _512  and  _513
REMARK  215  A    between atoms: _519  and  _521
REMARK  216  A    between atoms: _521  and  _522
REMARK  217  A    between atoms: _521  and  _524
REMARK  218  A    between atoms: _524  and  _525
REMARK  219  A    between atoms: _528  and  _530
REMARK  220  A    between atoms: _530  and  _531
REMARK  221  A    between atoms: _530  and  _533
REMARK  222  A    between atoms: _533  and  _534
REMARK  223  A    between atoms: _537  and  _539
REMARK  224  A    between atoms: _539  and  _540
REMARK  225  A    between atoms: _539  and  _542
REMARK  226  A    between atoms: _545  and  _547
REMARK  227  A    between atoms: _547  and  _548
REMARK  228  A    between atoms: _547  and  _550
REMARK  229  A    between atoms: _550  and  _551
REMARK  230  A    between atoms: _554  and  _556
REMARK  231  A    between atoms: _556  and  _557
REMARK  232  A    between atoms: _556  and  _559
REMARK  233  A    between atoms: _559  and  _560
REMARK  234  A    between atoms: _567  and  _568
REMARK  235  A    between atoms: _573  and  _575
REMARK  236  A    between atoms: _575  and  _576
REMARK  237  A    between atoms: _575  and  _578
REMARK  238  A    between atoms: _578  and  _579
REMARK  239  A    between atoms: _579  and  _580
REMARK  240  A    between atoms: _582  and  _584
REMARK  241  A    between atoms: _584  and  _585
REMARK  242  A    between atoms: _584  and  _587
REMARK  243  A    between atoms: _587  and  _588
REMARK  244  A    between atoms: _588  and  _589
REMARK  245  A    between atoms: _591  and  _593
REMARK  246  A    between atoms: _593  and  _594
REMARK  247  A    between atoms: _597  and  _599
REMARK  248  A    between atoms: _599  and  _600
REMARK  249  A    between atoms: _599  and  _602
REMARK  250  A    between atoms: _602  and  _603
REMARK  251  A    between atoms: _603  and  _604
REMARK  252  A    between atoms: _607  and  _609
REMARK  253  A    between atoms: _609  and  _610
REMARK  254  A    between atoms: _609  and  _612
REMARK  255  A    between atoms: _612  and  _613
REMARK  256  A    between atoms: _616  and  _618
REMARK  257  A    between atoms: _618  and  _619
REMARK  258  A    between atoms: _618  and  _621
REMARK  259  A    between atoms: _621  and  _622
REMARK  260  A    between atoms: _625  and  _627
REMARK  261  A    between atoms: _627  and  _628
REMARK  262  A    between atoms: _627  and  _630
REMARK  263  A    between atoms: _630  and  _631
REMARK  264  A    between atoms: _633  and  _635
REMARK  265  A    between atoms: _635  and  _636
REMARK  266  A    between atoms: _635  and  _638
REMARK  267  A    between atoms: _641  and  _643
REMARK  268  A    between atoms: _643  and  _644
REMARK  269  A    between atoms: _643  and  _646
REMARK  270  A    between atoms: _646  and  _647
REMARK  271  A    between atoms: _647  and  _648
REMARK  272  A    between atoms: _653  and  _655
REMARK  273  A    between atoms: _655  and  _656
REMARK  274  A    between atoms: _655  and  _658
REMARK  275  A    between atoms: _662  and  _663
REMARK  276  A    between atoms: _668  and  _670
REMARK  277  A    between atoms: _670  and  _671
REMARK  278  A    between atoms: _670  and  _673
REMARK  279  A    between atoms: _673  and  _674
REMARK                            x       y       z     vdW  Elec       q    Type
REMARK                         _______ _______ _______ _____ _____    ______ ____
ROOT
ATOM      1  O   HOH     1      23.578   9.210   6.584  0.00  0.00    +0.000 OA
ENDROOT
TORSDOF 0
REMARK  Name = ../refined-set-2016/1z95/1z95_pocket.pdb
REMARK  279 active torsions:
REMARK  status: ('A' for Active; 'I' for Inactive)
REMARK    1  A    between atoms: _1  and  _3
REMARK    2  A    between atoms: _3  and  _4
REMARK    3  A    between atoms: _3  and  _6
REMARK    4  A    between atoms: _9  and  _11
REMARK    5  A    between atoms: _11  and  _12
REMARK    6  A    between atoms: _15  and  _17
REMARK    7  A    between atoms: _17  and  _18
REMARK    8  A    between atoms: _17  and  _20
REMARK    9  A    between atoms: _20  and  _21
REMARK   10  A    between atoms: _27  and  _29
REMARK   11  A    between atoms: _29  and  _30
REMARK   12  A    between atoms: _29  and  _32
REMARK   13  A    between atoms: _32  and  _33
REMARK   14  A    between atoms: _36  and  _38
REMARK   15  A    between atoms: _38  and  _39
REMARK   16  A    between atoms: _38  and  _41
REMARK   17  A    between atoms: _41  and  _42
REMARK   18  A    between atoms: _45  and  _47
REMARK   19  A    between atoms: _47  and  _48
REMARK   20  A    between atoms: _47  and  _50
REMARK   21  A    between atoms: _50  and  _51
REMARK   22  A    between atoms: _53  and  _55
REMARK   23  A    between atoms: _55  and  _56
REMARK   24  A    between atoms: _55  and  _58
REMARK   25  A    between atoms: _58  and  _59
REMARK   26  A    between atoms: _61  and  _63
REMARK   27  A    between atoms: _63  and  _64
REMARK   28  A    between atoms: _63  and  _66
REMARK   29  A    between atoms: _66  and  _67
REMARK   30  A    between atoms: _70  and  _72
REMARK   31  A    between atoms: _72  and  _73
REMARK   32  A    between atoms: _72  and  _75
REMARK   33  A    between atoms: _75  and  _76
REMARK   34  A    between atoms: _81  and  _83
REMARK   35  A    between atoms: _83  and  _84
REMARK   36  A    between atoms: _83  and  _86
REMARK   37  A    between atoms: _86  and  _87
REMARK   38  A    between atoms: _87  and  _88
REMARK   39  A    between atoms: _91  and  _93
REMARK   40  A    between atoms: _93  and  _94
REMARK   41  A    between atoms: _93  and  _96
REMARK   42  A    between atoms: _96  and  _97
REMARK   43  A    between atoms: _100  and  _102
REMARK   44  A    between atoms: _102  and  _103
REMARK   45  A    between atoms: _105  and  _107
REMARK   46  A    between atoms: _107  and  _108
REMARK   47  A    between atoms: _107  and  _110
REMARK   48  A    between atoms: _110  and  _111
REMARK   49  A    between atoms: _111  and  _112
REMARK   50  A    between atoms: _115  and  _117
REMARK   51  A    between atoms: _117  and  _118
REMARK   52  A    between atoms: _117  and  _120
REMARK   53  A    between atoms: _120  and  _121
REMARK   54  A    between atoms: _121  and  _122
REMARK   55  A    between atoms: _122  and  _123
REMARK   56  A    between atoms: _132  and  _134
REMARK   57  A    between atoms: _134  and  _135
REMARK   58  A    between atoms: _134  and  _137
REMARK   59  A    between atoms: _137  and  _138
REMARK   60  A    between atoms: _138  and  _139
REMARK   61  A    between atoms: _144  and  _146
REMARK   62  A    between atoms: _146  and  _147
REMARK   63  A    between atoms: _146  and  _149
REMARK   64  A    between atoms: _149  and  _150
REMARK   65  A    between atoms: _153  and  _155
REMARK   66  A    between atoms: _155  and  _156
REMARK   67  A    between atoms: _155  and  _158
REMARK   68  A    between atoms: _158  and  _159
REMARK   69  A    between atoms: _162  and  _164
REMARK   70  A    between atoms: _164  and  _165
REMARK   71  A    between atoms: _164  and  _167
REMARK   72  A    between atoms: _167  and  _168
REMARK   73  A    between atoms: _168  and  _169
REMARK   74  A    between atoms: _174  and  _176
REMARK   75  A    between atoms: _176  and  _177
REMARK   76  A    between atoms: _176  and  _179
REMARK   77  A    between atoms: _179  and  _180
REMARK   78  A    between atoms: _185  and  _186
REMARK   79  A    between atoms: _188  and  _190
REMARK   80  A    between atoms: _190  and  _191
REMARK   81  A    between atoms: _190  and  _193
REMARK   82  A    between atoms: _193  and  _194
REMARK   83  A    between atoms: _196  and  _198
REMARK   84  A    between atoms: _198  and  _199
REMARK   85  A    between atoms: _198  and  _201
REMARK   86  A    between atoms: _201  and  _202
REMARK   87  A    between atoms: _205  and  _207
REMARK   88  A    between atoms: _207  and  _208
REMARK   89  A    between atoms: _207  and  _210
REMARK   90  A    between atoms: _210  and  _211
REMARK   91  A    between atoms: _211  and  _212
REMARK   92  A    between atoms: _214  and  _216
REMARK   93  A    between atoms: _216  and  _217
REMARK   94  A    between atoms: _219  and  _221
REMARK   95  A    between atoms: _221  and  _222
REMARK   96  A    between atoms: _221  and  _224
REMARK   97  A    between atoms: _224  and  _225
REMARK   98  A    between atoms: _228  and  _230
REMARK   99  A    between atoms: _230  and  _231
REMARK  100  A    between atoms: _230  and  _233
REMARK  101  A    between atoms: _233  and  _234
REMARK  102  A    between atoms: _234  and  _235
REMARK  103  A    between atoms: _237  and  _239
REMARK  104  A    between atoms: _239  and  _240
REMARK  105  A    between atoms: _239  and  _242
REMARK  106  A    between atoms: _245  and  _247
REMARK  107  A    between atoms: _247  and  _248
REMARK  108  A    between atoms: _247  and  _250
REMARK  109  A    between atoms: _250  and  _251
REMARK  110  A    between atoms: _257  and  _259
REMARK  111  A    between atoms: _259  and  _260
REMARK  112  A    between atoms: _263  and  _265
REMARK  113  A    between atoms: _265  and  _266
REMARK  114  A    between atoms: _265  and  _268
REMARK  115  A    between atoms: _268  and  _269
REMARK  116  A    between atoms: _269  and  _270
REMARK  117  A    between atoms: _272  and  _274
REMARK  118  A    between atoms: _274  and  _275
REMARK  119  A    between atoms: _277  and  _279
REMARK  120  A    between atoms: _279  and  _280
REMARK  121  A    between atoms: _279  and  _282
REMARK  122  A    between atoms: _282  and  _283
REMARK  123  A    between atoms: _293  and  _295
REMARK  124  A    between atoms: _295  and  _296
REMARK  125  A    between atoms: _295  and  _298
REMARK  126  A    between atoms: _298  and  _299
REMARK  127  A    between atoms: _299  and  _300
REMARK  128  A    between atoms: _300  and  _301
REMARK  129  A    between atoms: _310  and  _312
REMARK  130  A    between atoms: _312  and  _313
REMARK  131  A    between atoms: _312  and  _315
REMARK  132  A    between atoms: _315  and  _316
REMARK  133  A    between atoms: _318  and  _320
REMARK  134  A    between atoms: _320  and  _321
REMARK  135  A    between atoms: _320  and  _323
REMARK  136  A    between atoms: _323  and  _324
REMARK  137  A    between atoms: _327  and  _329
REMARK  138  A    between atoms: _329  and  _330
REMARK  139  A    between atoms: _329  and  _332
REMARK  140  A    between atoms: _332  and  _333
REMARK  141  A    between atoms: _338  and  _339
REMARK  142  A    between atoms: _341  and  _343
REMARK  143  A    between atoms: _343  and  _344
REMARK  144  A    between atoms: _343  and  _346
REMARK  145  A    between atoms: _346  and  _347
REMARK  146  A    between atoms: _353  and  _355
REMARK  147  A    between atoms: _355  and  _356
REMARK  148  A    between atoms: _359  and  _361
REMARK  149  A    between atoms: _361  and  _362
REMARK  150  A    between atoms: _361  and  _364
REMARK  151  A    between atoms: _364  and  _365
REMARK  152  A    between atoms: _368  and  _370
REMARK  153  A    between atoms: _370  and  _371
REMARK  154  A    between atoms: _370  and  _373
REMARK  155  A    between atoms: _373  and  _374
REMARK  156  A    between atoms: _380  and  _382
REMARK  157  A    between atoms: _382  and  _383
REMARK  158  A    between atoms: _382  and  _385
REMARK  159  A    between atoms: _385  and  _386
REMARK  160  A    between atoms: _388  and  _390
REMARK  161  A    between atoms: _390  and  _391
REMARK  162  A    between atoms: _390  and  _393
REMARK  163  A    between atoms: _393  and  _394
REMARK  164  A    between atoms: _394  and  _395
REMARK  165  A    between atoms: _397  and  _399
REMARK  166  A    between atoms: _399  and  _400
REMARK  167  A    between atoms: _399  and  _402
REMARK  168  A    between atoms: _402  and  _403
REMARK  169  A    between atoms: _403  and  _404
REMARK  170  A    between atoms: _409  and  _411
REMARK  171  A    between atoms: _411  and  _412
REMARK  172  A    between atoms: _411  and  _414
REMARK  173  A    between atoms: _416  and  _418
REMARK  174  A    between atoms: _418  and  _419
REMARK  175  A    between atoms: _418  and  _421
REMARK  176  A    between atoms: _421  and  _422
REMARK  177  A    between atoms: _422  and  _423
REMARK  178  A    between atoms: _425  and  _427
REMARK  179  A    between atoms: _427  and  _428
REMARK  180  A    between atoms: _427  and  _430
REMARK  181  A    between atoms: _430  and  _431
REMARK  182  A    between atoms: _434  and  _436
REMARK  183  A    between atoms: _436  and  _437
REMARK  184  A    between atoms: _436  and  _439
REMARK  185  A    between atoms: _439  and  _440
REMARK  186  A    between atoms: _443  and  _445
REMARK  187  A    between atoms: _445  and  _446
REMARK  188  A    between atoms: _445  and  _448
REMARK  189  A    between atoms: _451  and  _453
REMARK  190  A    between atoms: _453  and  _454
REMARK  191  A    between atoms: _453  and  _456
REMARK  192  A    between atoms: _456  and  _457
REMARK  193  A    between atoms: _460  and  _462
REMARK  194  A    between atoms: _462  and  _463
REMARK  195  A    between atoms: _466  and  _468
REMARK  196  A    between atoms: _468  and  _469
REMARK  197  A    between atoms: _468  and  _471
REMARK  198  A    between atoms: _471  and  _472
REMARK  199  A    between atoms: _475  and  _477
REMARK  200  A    between atoms: _477  and  _478
REMARK  201  A    between atoms: _477  and  _480
REMARK  202  A    between atoms: _480  and  _481
REMARK  203  A    between atoms: _486  and  _488
REMARK  204  A    between atoms: _488  and  _489
REMARK  205  A    between atoms: _488  and  _491
REMARK  206  A    between atoms: _491  and  _492
REMARK  207  A    between atoms: _498  and  _500
REMARK  208  A    between atoms: _500  and  _501
REMARK  209  A    between atoms: _500  and  _503
REMARK  210  A    between atoms: _503  and  _504
REMARK  211  A    between atoms: _507  and  _509
REMARK  212  A    between atoms: _509  and  _510
REMARK  213  A    between atoms: _509  and  _512
REMARK  214  A    between atoms: _512  and  _513
REMARK  215  A    between atoms: _519  and  _521
REMARK  216  A    between atoms: _521  and  _522
REMARK  217  A    between atoms: _521  and  _524
REMARK  218  A    between atoms: _524  and  _525
REMARK  219  A    between atoms: _528  and  _530
REMARK  220  A    between atoms: _530  and  _531
REMARK  221  A    between atoms: _530  and  _533
REMARK  222  A    between atoms: _533  and  _534
REMARK  223  A    between atoms: _537  and  _539
REMARK  224  A    between atoms: _539  and  _540
REMARK  225  A    between atoms: _539  and  _542
REMARK  226  A    between atoms: _545  and  _547
REMARK  227  A    between atoms: _547  and  _548
REMARK  228  A    between atoms: _547  and  _550
REMARK  229  A    between atoms: _550  and  _551
REMARK  230  A    between atoms: _554  and  _556
REMARK  231  A    between atoms: _556  and  _557
REMARK  232  A    between atoms: _556  and  _559
REMARK  233  A    between atoms: _559  and  _560
REMARK  234  A    between atoms: _567  and  _568
REMARK  235  A    between atoms: _573  and  _575
REMARK  236  A    between atoms: _575  and  _576
REMARK  237  A    between atoms: _575  and  _578
REMARK  238  A    between atoms: _578  and  _579
REMARK  239  A    between atoms: _579  and  _580
REMARK  240  A    between atoms: _582  and  _584
REMARK  241  A    between atoms: _584  and  _585
REMARK  242  A    between atoms: _584  and  _587
REMARK  243  A    between atoms: _587  and  _588
REMARK  244  A    between atoms: _588  and  _589
REMARK  245  A    between atoms: _591  and  _593
REMARK  246  A    between atoms: _593  and  _594
REMARK  247  A    between atoms: _597  and  _599
REMARK  248  A    between atoms: _599  and  _600
REMARK  249  A    between atoms: _599  and  _602
REMARK  250  A    between atoms: _602  and  _603
REMARK  251  A    between atoms: _603  and  _604
REMARK  252  A    between atoms: _607  and  _609
REMARK  253  A    between atoms: _609  and  _610
REMARK  254  A    between atoms: _609  and  _612
REMARK  255  A    between atoms: _612  and  _613
REMARK  256  A    between atoms: _616  and  _618
REMARK  257  A    between atoms: _618  and  _619
REMARK  258  A    between atoms: _618  and  _621
REMARK  259  A    between atoms: _621  and  _622
REMARK  260  A    between atoms: _625  and  _627
REMARK  261  A    between atoms: _627  and  _628
REMARK  262  A    between atoms: _627  and  _630
REMARK  263  A    between atoms: _630  and  _631
REMARK  264  A    between atoms: _633  and  _635
REMARK  265  A    between atoms: _635  and  _636
REMARK  266  A    between atoms: _635  and  _638
REMARK  267  A    between atoms: _641  and  _643
REMARK  268  A    between atoms: _643  and  _644
REMARK  269  A    between atoms: _643  and  _646
REMARK  270  A    between atoms: _646  and  _647
REMARK  271  A    between atoms: _647  and  _648
REMARK  272  A    between atoms: _653  and  _655
REMARK  273  A    between atoms: _655  and  _656
REMARK  274  A    between atoms: _655  and  _658
REMARK  275  A    between atoms: _662  and  _663
REMARK  276  A    between atoms: _668  and  _670
REMARK  277  A    between atoms: _670  and  _671
REMARK  278  A    between atoms: _670  and  _673
REMARK  279  A    between atoms: _673  and  _674
REMARK                            x       y       z     vdW  Elec       q    Type
REMARK                         _______ _______ _______ _____ _____    ______ ____
ROOT
ATOM      1  O   HOH     1      26.563  11.934   2.681  0.00  0.00    +0.000 OA
ENDROOT
TORSDOF 0
REMARK  Name = ../refined-set-2016/1z95/1z95_pocket.pdb
REMARK  279 active torsions:
REMARK  status: ('A' for Active; 'I' for Inactive)
REMARK    1  A    between atoms: _1  and  _3
REMARK    2  A    between atoms: _3  and  _4
REMARK    3  A    between atoms: _3  and  _6
REMARK    4  A    between atoms: _9  and  _11
REMARK    5  A    between atoms: _11  and  _12
REMARK    6  A    between atoms: _15  and  _17
REMARK    7  A    between atoms: _17  and  _18
REMARK    8  A    between atoms: _17  and  _20
REMARK    9  A    between atoms: _20  and  _21
REMARK   10  A    between atoms: _27  and  _29
REMARK   11  A    between atoms: _29  and  _30
REMARK   12  A    between atoms: _29  and  _32
REMARK   13  A    between atoms: _32  and  _33
REMARK   14  A    between atoms: _36  and  _38
REMARK   15  A    between atoms: _38  and  _39
REMARK   16  A    between atoms: _38  and  _41
REMARK   17  A    between atoms: _41  and  _42
REMARK   18  A    between atoms: _45  and  _47
REMARK   19  A    between atoms: _47  and  _48
REMARK   20  A    between atoms: _47  and  _50
REMARK   21  A    between atoms: _50  and  _51
REMARK   22  A    between atoms: _53  and  _55
REMARK   23  A    between atoms: _55  and  _56
REMARK   24  A    between atoms: _55  and  _58
REMARK   25  A    between atoms: _58  and  _59
REMARK   26  A    between atoms: _61  and  _63
REMARK   27  A    between atoms: _63  and  _64
REMARK   28  A    between atoms: _63  and  _66
REMARK   29  A    between atoms: _66  and  _67
REMARK   30  A    between atoms: _70  and  _72
REMARK   31  A    between atoms: _72  and  _73
REMARK   32  A    between atoms: _72  and  _75
REMARK   33  A    between atoms: _75  and  _76
REMARK   34  A    between atoms: _81  and  _83
REMARK   35  A    between atoms: _83  and  _84
REMARK   36  A    between atoms: _83  and  _86
REMARK   37  A    between atoms: _86  and  _87
REMARK   38  A    between atoms: _87  and  _88
REMARK   39  A    between atoms: _91  and  _93
REMARK   40  A    between atoms: _93  and  _94
REMARK   41  A    between atoms: _93  and  _96
REMARK   42  A    between atoms: _96  and  _97
REMARK   43  A    between atoms: _100  and  _102
REMARK   44  A    between atoms: _102  and  _103
REMARK   45  A    between atoms: _105  and  _107
REMARK   46  A    between atoms: _107  and  _108
REMARK   47  A    between atoms: _107  and  _110
REMARK   48  A    between atoms: _110  and  _111
REMARK   49  A    between atoms: _111  and  _112
REMARK   50  A    between atoms: _115  and  _117
REMARK   51  A    between atoms: _117  and  _118
REMARK   52  A    between atoms: _117  and  _120
REMARK   53  A    between atoms: _120  and  _121
REMARK   54  A    between atoms: _121  and  _122
REMARK   55  A    between atoms: _122  and  _123
REMARK   56  A    between atoms: _132  and  _134
REMARK   57  A    between atoms: _134  and  _135
REMARK   58  A    between atoms: _134  and  _137
REMARK   59  A    between atoms: _137  and  _138
REMARK   60  A    between atoms: _138  and  _139
REMARK   61  A    between atoms: _144  and  _146
REMARK   62  A    between atoms: _146  and  _147
REMARK   63  A    between atoms: _146  and  _149
REMARK   64  A    between atoms: _149  and  _150
REMARK   65  A    between atoms: _153  and  _155
REMARK   66  A    between atoms: _155  and  _156
REMARK   67  A    between atoms: _155  and  _158
REMARK   68  A    between atoms: _158  and  _159
REMARK   69  A    between atoms: _162  and  _164
REMARK   70  A    between atoms: _164  and  _165
REMARK   71  A    between atoms: _164  and  _167
REMARK   72  A    between atoms: _167  and  _168
REMARK   73  A    between atoms: _168  and  _169
REMARK   74  A    between atoms: _174  and  _176
REMARK   75  A    between atoms: _176  and  _177
REMARK   76  A    between atoms: _176  and  _179
REMARK   77  A    between atoms: _179  and  _180
REMARK   78  A    between atoms: _185  and  _186
REMARK   79  A    between atoms: _188  and  _190
REMARK   80  A    between atoms: _190  and  _191
REMARK   81  A    between atoms: _190  and  _193
REMARK   82  A    between atoms: _193  and  _194
REMARK   83  A    between atoms: _196  and  _198
REMARK   84  A    between atoms: _198  and  _199
REMARK   85  A    between atoms: _198  and  _201
REMARK   86  A    between atoms: _201  and  _202
REMARK   87  A    between atoms: _205  and  _207
REMARK   88  A    between atoms: _207  and  _208
REMARK   89  A    between atoms: _207  and  _210
REMARK   90  A    between atoms: _210  and  _211
REMARK   91  A    between atoms: _211  and  _212
REMARK   92  A    between atoms: _214  and  _216
REMARK   93  A    between atoms: _216  and  _217
REMARK   94  A    between atoms: _219  and  _221
REMARK   95  A    between atoms: _221  and  _222
REMARK   96  A    between atoms: _221  and  _224
REMARK   97  A    between atoms: _224  and  _225
REMARK   98  A    between atoms: _228  and  _230
REMARK   99  A    between atoms: _230  and  _231
REMARK  100  A    between atoms: _230  and  _233
REMARK  101  A    between atoms: _233  and  _234
REMARK  102  A    between atoms: _234  and  _235
REMARK  103  A    between atoms: _237  and  _239
REMARK  104  A    between atoms: _239  and  _240
REMARK  105  A    between atoms: _239  and  _242
REMARK  106  A    between atoms: _245  and  _247
REMARK  107  A    between atoms: _247  and  _248
REMARK  108  A    between atoms: _247  and  _250
REMARK  109  A    between atoms: _250  and  _251
REMARK  110  A    between atoms: _257  and  _259
REMARK  111  A    between atoms: _259  and  _260
REMARK  112  A    between atoms: _263  and  _265
REMARK  113  A    between atoms: _265  and  _266
REMARK  114  A    between atoms: _265  and  _268
REMARK  115  A    between atoms: _268  and  _269
REMARK  116  A    between atoms: _269  and  _270
REMARK  117  A    between atoms: _272  and  _274
REMARK  118  A    between atoms: _274  and  _275
REMARK  119  A    between atoms: _277  and  _279
REMARK  120  A    between atoms: _279  and  _280
REMARK  121  A    between atoms: _279  and  _282
REMARK  122  A    between atoms: _282  and  _283
REMARK  123  A    between atoms: _293  and  _295
REMARK  124  A    between atoms: _295  and  _296
REMARK  125  A    between atoms: _295  and  _298
REMARK  126  A    between atoms: _298  and  _299
REMARK  127  A    between atoms: _299  and  _300
REMARK  128  A    between atoms: _300  and  _301
REMARK  129  A    between atoms: _310  and  _312
REMARK  130  A    between atoms: _312  and  _313
REMARK  131  A    between atoms: _312  and  _315
REMARK  132  A    between atoms: _315  and  _316
REMARK  133  A    between atoms: _318  and  _320
REMARK  134  A    between atoms: _320  and  _321
REMARK  135  A    between atoms: _320  and  _323
REMARK  136  A    between atoms: _323  and  _324
REMARK  137  A    between atoms: _327  and  _329
REMARK  138  A    between atoms: _329  and  _330
REMARK  139  A    between atoms: _329  and  _332
REMARK  140  A    between atoms: _332  and  _333
REMARK  141  A    between atoms: _338  and  _339
REMARK  142  A    between atoms: _341  and  _343
REMARK  143  A    between atoms: _343  and  _344
REMARK  144  A    between atoms: _343  and  _346
REMARK  145  A    between atoms: _346  and  _347
REMARK  146  A    between atoms: _353  and  _355
REMARK  147  A    between atoms: _355  and  _356
REMARK  148  A    between atoms: _359  and  _361
REMARK  149  A    between atoms: _361  and  _362
REMARK  150  A    between atoms: _361  and  _364
REMARK  151  A    between atoms: _364  and  _365
REMARK  152  A    between atoms: _368  and  _370
REMARK  153  A    between atoms: _370  and  _371
REMARK  154  A    between atoms: _370  and  _373
REMARK  155  A    between atoms: _373  and  _374
REMARK  156  A    between atoms: _380  and  _382
REMARK  157  A    between atoms: _382  and  _383
REMARK  158  A    between atoms: _382  and  _385
REMARK  159  A    between atoms: _385  and  _386
REMARK  160  A    between atoms: _388  and  _390
REMARK  161  A    between atoms: _390  and  _391
REMARK  162  A    between atoms: _390  and  _393
REMARK  163  A    between atoms: _393  and  _394
REMARK  164  A    between atoms: _394  and  _395
REMARK  165  A    between atoms: _397  and  _399
REMARK  166  A    between atoms: _399  and  _400
REMARK  167  A    between atoms: _399  and  _402
REMARK  168  A    between atoms: _402  and  _403
REMARK  169  A    between atoms: _403  and  _404
REMARK  170  A    between atoms: _409  and  _411
REMARK  171  A    between atoms: _411  and  _412
REMARK  172  A    between atoms: _411  and  _414
REMARK  173  A    between atoms: _416  and  _418
REMARK  174  A    between atoms: _418  and  _419
REMARK  175  A    between atoms: _418  and  _421
REMARK  176  A    between atoms: _421  and  _422
REMARK  177  A    between atoms: _422  and  _423
REMARK  178  A    between atoms: _425  and  _427
REMARK  179  A    between atoms: _427  and  _428
REMARK  180  A    between atoms: _427  and  _430
REMARK  181  A    between atoms: _430  and  _431
REMARK  182  A    between atoms: _434  and  _436
REMARK  183  A    between atoms: _436  and  _437
REMARK  184  A    between atoms: _436  and  _439
REMARK  185  A    between atoms: _439  and  _440
REMARK  186  A    between atoms: _443  and  _445
REMARK  187  A    between atoms: _445  and  _446
REMARK  188  A    between atoms: _445  and  _448
REMARK  189  A    between atoms: _451  and  _453
REMARK  190  A    between atoms: _453  and  _454
REMARK  191  A    between atoms: _453  and  _456
REMARK  192  A    between atoms: _456  and  _457
REMARK  193  A    between atoms: _460  and  _462
REMARK  194  A    between atoms: _462  and  _463
REMARK  195  A    between atoms: _466  and  _468
REMARK  196  A    between atoms: _468  and  _469
REMARK  197  A    between atoms: _468  and  _471
REMARK  198  A    between atoms: _471  and  _472
REMARK  199  A    between atoms: _475  and  _477
REMARK  200  A    between atoms: _477  and  _478
REMARK  201  A    between atoms: _477  and  _480
REMARK  202  A    between atoms: _480  and  _481
REMARK  203  A    between atoms: _486  and  _488
REMARK  204  A    between atoms: _488  and  _489
REMARK  205  A    between atoms: _488  and  _491
REMARK  206  A    between atoms: _491  and  _492
REMARK  207  A    between atoms: _498  and  _500
REMARK  208  A    between atoms: _500  and  _501
REMARK  209  A    between atoms: _500  and  _503
REMARK  210  A    between atoms: _503  and  _504
REMARK  211  A    between atoms: _507  and  _509
REMARK  212  A    between atoms: _509  and  _510
REMARK  213  A    between atoms: _509  and  _512
REMARK  214  A    between atoms: _512  and  _513
REMARK  215  A    between atoms: _519  and  _521
REMARK  216  A    between atoms: _521  and  _522
REMARK  217  A    between atoms: _521  and  _524
REMARK  218  A    between atoms: _524  and  _525
REMARK  219  A    between atoms: _528  and  _530
REMARK  220  A    between atoms: _530  and  _531
REMARK  221  A    between atoms: _530  and  _533
REMARK  222  A    between atoms: _533  and  _534
REMARK  223  A    between atoms: _537  and  _539
REMARK  224  A    between atoms: _539  and  _540
REMARK  225  A    between atoms: _539  and  _542
REMARK  226  A    between atoms: _545  and  _547
REMARK  227  A    between atoms: _547  and  _548
REMARK  228  A    between atoms: _547  and  _550
REMARK  229  A    between atoms: _550  and  _551
REMARK  230  A    between atoms: _554  and  _556
REMARK  231  A    between atoms: _556  and  _557
REMARK  232  A    between atoms: _556  and  _559
REMARK  233  A    between atoms: _559  and  _560
REMARK  234  A    between atoms: _567  and  _568
REMARK  235  A    between atoms: _573  and  _575
REMARK  236  A    between atoms: _575  and  _576
REMARK  237  A    between atoms: _575  and  _578
REMARK  238  A    between atoms: _578  and  _579
REMARK  239  A    between atoms: _579  and  _580
REMARK  240  A    between atoms: _582  and  _584
REMARK  241  A    between atoms: _584  and  _585
REMARK  242  A    between atoms: _584  and  _587
REMARK  243  A    between atoms: _587  and  _588
REMARK  244  A    between atoms: _588  and  _589
REMARK  245  A    between atoms: _591  and  _593
REMARK  246  A    between atoms: _593  and  _594
REMARK  247  A    between atoms: _597  and  _599
REMARK  248  A    between atoms: _599  and  _600
REMARK  249  A    between atoms: _599  and  _602
REMARK  250  A    between atoms: _602  and  _603
REMARK  251  A    between atoms: _603  and  _604
REMARK  252  A    between atoms: _607  and  _609
REMARK  253  A    between atoms: _609  and  _610
REMARK  254  A    between atoms: _609  and  _612
REMARK  255  A    between atoms: _612  and  _613
REMARK  256  A    between atoms: _616  and  _618
REMARK  257  A    between atoms: _618  and  _619
REMARK  258  A    between atoms: _618  and  _621
REMARK  259  A    between atoms: _621  and  _622
REMARK  260  A    between atoms: _625  and  _627
REMARK  261  A    between atoms: _627  and  _628
REMARK  262  A    between atoms: _627  and  _630
REMARK  263  A    between atoms: _630  and  _631
REMARK  264  A    between atoms: _633  and  _635
REMARK  265  A    between atoms: _635  and  _636
REMARK  266  A    between atoms: _635  and  _638
REMARK  267  A    between atoms: _641  and  _643
REMARK  268  A    between atoms: _643  and  _644
REMARK  269  A    between atoms: _643  and  _646
REMARK  270  A    between atoms: _646  and  _647
REMARK  271  A    between atoms: _647  and  _648
REMARK  272  A    between atoms: _653  and  _655
REMARK  273  A    between atoms: _655  and  _656
REMARK  274  A    between atoms: _655  and  _658
REMARK  275  A    between atoms: _662  and  _663
REMARK  276  A    between atoms: _668  and  _670
REMARK  277  A    between atoms: _670  and  _671
REMARK  278  A    between atoms: _670  and  _673
REMARK  279  A    between atoms: _673  and  _674
REMARK                            x       y       z     vdW  Elec       q    Type
REMARK                         _______ _______ _______ _____ _____    ______ ____
ROOT
ATOM      1  O   HOH     1      37.687   2.730   1.320  0.00  0.00    +0.000 OA
ENDROOT
TORSDOF 0
REMARK  Name = ../refined-set-2016/1z95/1z95_pocket.pdb
REMARK  279 active torsions:
REMARK  status: ('A' for Active; 'I' for Inactive)
REMARK    1  A    between atoms: _1  and  _3
REMARK    2  A    between atoms: _3  and  _4
REMARK    3  A    between atoms: _3  and  _6
REMARK    4  A    between atoms: _9  and  _11
REMARK    5  A    between atoms: _11  and  _12
REMARK    6  A    between atoms: _15  and  _17
REMARK    7  A    between atoms: _17  and  _18
REMARK    8  A    between atoms: _17  and  _20
REMARK    9  A    between atoms: _20  and  _21
REMARK   10  A    between atoms: _27  and  _29
REMARK   11  A    between atoms: _29  and  _30
REMARK   12  A    between atoms: _29  and  _32
REMARK   13  A    between atoms: _32  and  _33
REMARK   14  A    between atoms: _36  and  _38
REMARK   15  A    between atoms: _38  and  _39
REMARK   16  A    between atoms: _38  and  _41
REMARK   17  A    between atoms: _41  and  _42
REMARK   18  A    between atoms: _45  and  _47
REMARK   19  A    between atoms: _47  and  _48
REMARK   20  A    between atoms: _47  and  _50
REMARK   21  A    between atoms: _50  and  _51
REMARK   22  A    between atoms: _53  and  _55
REMARK   23  A    between atoms: _55  and  _56
REMARK   24  A    between atoms: _55  and  _58
REMARK   25  A    between atoms: _58  and  _59
REMARK   26  A    between atoms: _61  and  _63
REMARK   27  A    between atoms: _63  and  _64
REMARK   28  A    between atoms: _63  and  _66
REMARK   29  A    between atoms: _66  and  _67
REMARK   30  A    between atoms: _70  and  _72
REMARK   31  A    between atoms: _72  and  _73
REMARK   32  A    between atoms: _72  and  _75
REMARK   33  A    between atoms: _75  and  _76
REMARK   34  A    between atoms: _81  and  _83
REMARK   35  A    between atoms: _83  and  _84
REMARK   36  A    between atoms: _83  and  _86
REMARK   37  A    between atoms: _86  and  _87
REMARK   38  A    between atoms: _87  and  _88
REMARK   39  A    between atoms: _91  and  _93
REMARK   40  A    between atoms: _93  and  _94
REMARK   41  A    between atoms: _93  and  _96
REMARK   42  A    between atoms: _96  and  _97
REMARK   43  A    between atoms: _100  and  _102
REMARK   44  A    between atoms: _102  and  _103
REMARK   45  A    between atoms: _105  and  _107
REMARK   46  A    between atoms: _107  and  _108
REMARK   47  A    between atoms: _107  and  _110
REMARK   48  A    between atoms: _110  and  _111
REMARK   49  A    between atoms: _111  and  _112
REMARK   50  A    between atoms: _115  and  _117
REMARK   51  A    between atoms: _117  and  _118
REMARK   52  A    between atoms: _117  and  _120
REMARK   53  A    between atoms: _120  and  _121
REMARK   54  A    between atoms: _121  and  _122
REMARK   55  A    between atoms: _122  and  _123
REMARK   56  A    between atoms: _132  and  _134
REMARK   57  A    between atoms: _134  and  _135
REMARK   58  A    between atoms: _134  and  _137
REMARK   59  A    between atoms: _137  and  _138
REMARK   60  A    between atoms: _138  and  _139
REMARK   61  A    between atoms: _144  and  _146
REMARK   62  A    between atoms: _146  and  _147
REMARK   63  A    between atoms: _146  and  _149
REMARK   64  A    between atoms: _149  and  _150
REMARK   65  A    between atoms: _153  and  _155
REMARK   66  A    between atoms: _155  and  _156
REMARK   67  A    between atoms: _155  and  _158
REMARK   68  A    between atoms: _158  and  _159
REMARK   69  A    between atoms: _162  and  _164
REMARK   70  A    between atoms: _164  and  _165
REMARK   71  A    between atoms: _164  and  _167
REMARK   72  A    between atoms: _167  and  _168
REMARK   73  A    between atoms: _168  and  _169
REMARK   74  A    between atoms: _174  and  _176
REMARK   75  A    between atoms: _176  and  _177
REMARK   76  A    between atoms: _176  and  _179
REMARK   77  A    between atoms: _179  and  _180
REMARK   78  A    between atoms: _185  and  _186
REMARK   79  A    between atoms: _188  and  _190
REMARK   80  A    between atoms: _190  and  _191
REMARK   81  A    between atoms: _190  and  _193
REMARK   82  A    between atoms: _193  and  _194
REMARK   83  A    between atoms: _196  and  _198
REMARK   84  A    between atoms: _198  and  _199
REMARK   85  A    between atoms: _198  and  _201
REMARK   86  A    between atoms: _201  and  _202
REMARK   87  A    between atoms: _205  and  _207
REMARK   88  A    between atoms: _207  and  _208
REMARK   89  A    between atoms: _207  and  _210
REMARK   90  A    between atoms: _210  and  _211
REMARK   91  A    between atoms: _211  and  _212
REMARK   92  A    between atoms: _214  and  _216
REMARK   93  A    between atoms: _216  and  _217
REMARK   94  A    between atoms: _219  and  _221
REMARK   95  A    between atoms: _221  and  _222
REMARK   96  A    between atoms: _221  and  _224
REMARK   97  A    between atoms: _224  and  _225
REMARK   98  A    between atoms: _228  and  _230
REMARK   99  A    between atoms: _230  and  _231
REMARK  100  A    between atoms: _230  and  _233
REMARK  101  A    between atoms: _233  and  _234
REMARK  102  A    between atoms: _234  and  _235
REMARK  103  A    between atoms: _237  and  _239
REMARK  104  A    between atoms: _239  and  _240
REMARK  105  A    between atoms: _239  and  _242
REMARK  106  A    between atoms: _245  and  _247
REMARK  107  A    between atoms: _247  and  _248
REMARK  108  A    between atoms: _247  and  _250
REMARK  109  A    between atoms: _250  and  _251
REMARK  110  A    between atoms: _257  and  _259
REMARK  111  A    between atoms: _259  and  _260
REMARK  112  A    between atoms: _263  and  _265
REMARK  113  A    between atoms: _265  and  _266
REMARK  114  A    between atoms: _265  and  _268
REMARK  115  A    between atoms: _268  and  _269
REMARK  116  A    between atoms: _269  and  _270
REMARK  117  A    between atoms: _272  and  _274
REMARK  118  A    between atoms: _274  and  _275
REMARK  119  A    between atoms: _277  and  _279
REMARK  120  A    between atoms: _279  and  _280
REMARK  121  A    between atoms: _279  and  _282
REMARK  122  A    between atoms: _282  and  _283
REMARK  123  A    between atoms: _293  and  _295
REMARK  124  A    between atoms: _295  and  _296
REMARK  125  A    between atoms: _295  and  _298
REMARK  126  A    between atoms: _298  and  _299
REMARK  127  A    between atoms: _299  and  _300
REMARK  128  A    between atoms: _300  and  _301
REMARK  129  A    between atoms: _310  and  _312
REMARK  130  A    between atoms: _312  and  _313
REMARK  131  A    between atoms: _312  and  _315
REMARK  132  A    between atoms: _315  and  _316
REMARK  133  A    between atoms: _318  and  _320
REMARK  134  A    between atoms: _320  and  _321
REMARK  135  A    between atoms: _320  and  _323
REMARK  136  A    between atoms: _323  and  _324
REMARK  137  A    between atoms: _327  and  _329
REMARK  138  A    between atoms: _329  and  _330
REMARK  139  A    between atoms: _329  and  _332
REMARK  140  A    between atoms: _332  and  _333
REMARK  141  A    between atoms: _338  and  _339
REMARK  142  A    between atoms: _341  and  _343
REMARK  143  A    between atoms: _343  and  _344
REMARK  144  A    between atoms: _343  and  _346
REMARK  145  A    between atoms: _346  and  _347
REMARK  146  A    between atoms: _353  and  _355
REMARK  147  A    between atoms: _355  and  _356
REMARK  148  A    between atoms: _359  and  _361
REMARK  149  A    between atoms: _361  and  _362
REMARK  150  A    between atoms: _361  and  _364
REMARK  151  A    between atoms: _364  and  _365
REMARK  152  A    between atoms: _368  and  _370
REMARK  153  A    between atoms: _370  and  _371
REMARK  154  A    between atoms: _370  and  _373
REMARK  155  A    between atoms: _373  and  _374
REMARK  156  A    between atoms: _380  and  _382
REMARK  157  A    between atoms: _382  and  _383
REMARK  158  A    between atoms: _382  and  _385
REMARK  159  A    between atoms: _385  and  _386
REMARK  160  A    between atoms: _388  and  _390
REMARK  161  A    between atoms: _390  and  _391
REMARK  162  A    between atoms: _390  and  _393
REMARK  163  A    between atoms: _393  and  _394
REMARK  164  A    between atoms: _394  and  _395
REMARK  165  A    between atoms: _397  and  _399
REMARK  166  A    between atoms: _399  and  _400
REMARK  167  A    between atoms: _399  and  _402
REMARK  168  A    between atoms: _402  and  _403
REMARK  169  A    between atoms: _403  and  _404
REMARK  170  A    between atoms: _409  and  _411
REMARK  171  A    between atoms: _411  and  _412
REMARK  172  A    between atoms: _411  and  _414
REMARK  173  A    between atoms: _416  and  _418
REMARK  174  A    between atoms: _418  and  _419
REMARK  175  A    between atoms: _418  and  _421
REMARK  176  A    between atoms: _421  and  _422
REMARK  177  A    between atoms: _422  and  _423
REMARK  178  A    between atoms: _425  and  _427
REMARK  179  A    between atoms: _427  and  _428
REMARK  180  A    between atoms: _427  and  _430
REMARK  181  A    between atoms: _430  and  _431
REMARK  182  A    between atoms: _434  and  _436
REMARK  183  A    between atoms: _436  and  _437
REMARK  184  A    between atoms: _436  and  _439
REMARK  185  A    between atoms: _439  and  _440
REMARK  186  A    between atoms: _443  and  _445
REMARK  187  A    between atoms: _445  and  _446
REMARK  188  A    between atoms: _445  and  _448
REMARK  189  A    between atoms: _451  and  _453
REMARK  190  A    between atoms: _453  and  _454
REMARK  191  A    between atoms: _453  and  _456
REMARK  192  A    between atoms: _456  and  _457
REMARK  193  A    between atoms: _460  and  _462
REMARK  194  A    between atoms: _462  and  _463
REMARK  195  A    between atoms: _466  and  _468
REMARK  196  A    between atoms: _468  and  _469
REMARK  197  A    between atoms: _468  and  _471
REMARK  198  A    between atoms: _471  and  _472
REMARK  199  A    between atoms: _475  and  _477
REMARK  200  A    between atoms: _477  and  _478
REMARK  201  A    between atoms: _477  and  _480
REMARK  202  A    between atoms: _480  and  _481
REMARK  203  A    between atoms: _486  and  _488
REMARK  204  A    between atoms: _488  and  _489
REMARK  205  A    between atoms: _488  and  _491
REMARK  206  A    between atoms: _491  and  _492
REMARK  207  A    between atoms: _498  and  _500
REMARK  208  A    between atoms: _500  and  _501
REMARK  209  A    between atoms: _500  and  _503
REMARK  210  A    between atoms: _503  and  _504
REMARK  211  A    between atoms: _507  and  _509
REMARK  212  A    between atoms: _509  and  _510
REMARK  213  A    between atoms: _509  and  _512
REMARK  214  A    between atoms: _512  and  _513
REMARK  215  A    between atoms: _519  and  _521
REMARK  216  A    between atoms: _521  and  _522
REMARK  217  A    between atoms: _521  and  _524
REMARK  218  A    between atoms: _524  and  _525
REMARK  219  A    between atoms: _528  and  _530
REMARK  220  A    between atoms: _530  and  _531
REMARK  221  A    between atoms: _530  and  _533
REMARK  222  A    between atoms: _533  and  _534
REMARK  223  A    between atoms: _537  and  _539
REMARK  224  A    between atoms: _539  and  _540
REMARK  225  A    between atoms: _539  and  _542
REMARK  226  A    between atoms: _545  and  _547
REMARK  227  A    between atoms: _547  and  _548
REMARK  228  A    between atoms: _547  and  _550
REMARK  229  A    between atoms: _550  and  _551
REMARK  230  A    between atoms: _554  and  _556
REMARK  231  A    between atoms: _556  and  _557
REMARK  232  A    between atoms: _556  and  _559
REMARK  233  A    between atoms: _559  and  _560
REMARK  234  A    between atoms: _567  and  _568
REMARK  235  A    between atoms: _573  and  _575
REMARK  236  A    between atoms: _575  and  _576
REMARK  237  A    between atoms: _575  and  _578
REMARK  238  A    between atoms: _578  and  _579
REMARK  239  A    between atoms: _579  and  _580
REMARK  240  A    between atoms: _582  and  _584
REMARK  241  A    between atoms: _584  and  _585
REMARK  242  A    between atoms: _584  and  _587
REMARK  243  A    between atoms: _587  and  _588
REMARK  244  A    between atoms: _588  and  _589
REMARK  245  A    between atoms: _591  and  _593
REMARK  246  A    between atoms: _593  and  _594
REMARK  247  A    between atoms: _597  and  _599
REMARK  248  A    between atoms: _599  and  _600
REMARK  249  A    between atoms: _599  and  _602
REMARK  250  A    between atoms: _602  and  _603
REMARK  251  A    between atoms: _603  and  _604
REMARK  252  A    between atoms: _607  and  _609
REMARK  253  A    between atoms: _609  and  _610
REMARK  254  A    between atoms: _609  and  _612
REMARK  255  A    between atoms: _612  and  _613
REMARK  256  A    between atoms: _616  and  _618
REMARK  257  A    between atoms: _618  and  _619
REMARK  258  A    between atoms: _618  and  _621
REMARK  259  A    between atoms: _621  and  _622
REMARK  260  A    between atoms: _625  and  _627
REMARK  261  A    between atoms: _627  and  _628
REMARK  262  A    between atoms: _627  and  _630
REMARK  263  A    between atoms: _630  and  _631
REMARK  264  A    between atoms: _633  and  _635
REMARK  265  A    between atoms: _635  and  _636
REMARK  266  A    between atoms: _635  and  _638
REMARK  267  A    between atoms: _641  and  _643
REMARK  268  A    between atoms: _643  and  _644
REMARK  269  A    between atoms: _643  and  _646
REMARK  270  A    between atoms: _646  and  _647
REMARK  271  A    between atoms: _647  and  _648
REMARK  272  A    between atoms: _653  and  _655
REMARK  273  A    between atoms: _655  and  _656
REMARK  274  A    between atoms: _655  and  _658
REMARK  275  A    between atoms: _662  and  _663
REMARK  276  A    between atoms: _668  and  _670
REMARK  277  A    between atoms: _670  and  _671
REMARK  278  A    between atoms: _670  and  _673
REMARK  279  A    between atoms: _673  and  _674
REMARK                            x       y       z     vdW  Elec       q    Type
REMARK                         _______ _______ _______ _____ _____    ______ ____
ROOT
ATOM      1  O   HOH     1      24.774  10.755   9.166  0.00  0.00    +0.000 OA
ENDROOT
TORSDOF 0
REMARK  Name = ../refined-set-2016/1z95/1z95_pocket.pdb
REMARK  279 active torsions:
REMARK  status: ('A' for Active; 'I' for Inactive)
REMARK    1  A    between atoms: _1  and  _3
REMARK    2  A    between atoms: _3  and  _4
REMARK    3  A    between atoms: _3  and  _6
REMARK    4  A    between atoms: _9  and  _11
REMARK    5  A    between atoms: _11  and  _12
REMARK    6  A    between atoms: _15  and  _17
REMARK    7  A    between atoms: _17  and  _18
REMARK    8  A    between atoms: _17  and  _20
REMARK    9  A    between atoms: _20  and  _21
REMARK   10  A    between atoms: _27  and  _29
REMARK   11  A    between atoms: _29  and  _30
REMARK   12  A    between atoms: _29  and  _32
REMARK   13  A    between atoms: _32  and  _33
REMARK   14  A    between atoms: _36  and  _38
REMARK   15  A    between atoms: _38  and  _39
REMARK   16  A    between atoms: _38  and  _41
REMARK   17  A    between atoms: _41  and  _42
REMARK   18  A    between atoms: _45  and  _47
REMARK   19  A    between atoms: _47  and  _48
REMARK   20  A    between atoms: _47  and  _50
REMARK   21  A    between atoms: _50  and  _51
REMARK   22  A    between atoms: _53  and  _55
REMARK   23  A    between atoms: _55  and  _56
REMARK   24  A    between atoms: _55  and  _58
REMARK   25  A    between atoms: _58  and  _59
REMARK   26  A    between atoms: _61  and  _63
REMARK   27  A    between atoms: _63  and  _64
REMARK   28  A    between atoms: _63  and  _66
REMARK   29  A    between atoms: _66  and  _67
REMARK   30  A    between atoms: _70  and  _72
REMARK   31  A    between atoms: _72  and  _73
REMARK   32  A    between atoms: _72  and  _75
REMARK   33  A    between atoms: _75  and  _76
REMARK   34  A    between atoms: _81  and  _83
REMARK   35  A    between atoms: _83  and  _84
REMARK   36  A    between atoms: _83  and  _86
REMARK   37  A    between atoms: _86  and  _87
REMARK   38  A    between atoms: _87  and  _88
REMARK   39  A    between atoms: _91  and  _93
REMARK   40  A    between atoms: _93  and  _94
REMARK   41  A    between atoms: _93  and  _96
REMARK   42  A    between atoms: _96  and  _97
REMARK   43  A    between atoms: _100  and  _102
REMARK   44  A    between atoms: _102  and  _103
REMARK   45  A    between atoms: _105  and  _107
REMARK   46  A    between atoms: _107  and  _108
REMARK   47  A    between atoms: _107  and  _110
REMARK   48  A    between atoms: _110  and  _111
REMARK   49  A    between atoms: _111  and  _112
REMARK   50  A    between atoms: _115  and  _117
REMARK   51  A    between atoms: _117  and  _118
REMARK   52  A    between atoms: _117  and  _120
REMARK   53  A    between atoms: _120  and  _121
REMARK   54  A    between atoms: _121  and  _122
REMARK   55  A    between atoms: _122  and  _123
REMARK   56  A    between atoms: _132  and  _134
REMARK   57  A    between atoms: _134  and  _135
REMARK   58  A    between atoms: _134  and  _137
REMARK   59  A    between atoms: _137  and  _138
REMARK   60  A    between atoms: _138  and  _139
REMARK   61  A    between atoms: _144  and  _146
REMARK   62  A    between atoms: _146  and  _147
REMARK   63  A    between atoms: _146  and  _149
REMARK   64  A    between atoms: _149  and  _150
REMARK   65  A    between atoms: _153  and  _155
REMARK   66  A    between atoms: _155  and  _156
REMARK   67  A    between atoms: _155  and  _158
REMARK   68  A    between atoms: _158  and  _159
REMARK   69  A    between atoms: _162  and  _164
REMARK   70  A    between atoms: _164  and  _165
REMARK   71  A    between atoms: _164  and  _167
REMARK   72  A    between atoms: _167  and  _168
REMARK   73  A    between atoms: _168  and  _169
REMARK   74  A    between atoms: _174  and  _176
REMARK   75  A    between atoms: _176  and  _177
REMARK   76  A    between atoms: _176  and  _179
REMARK   77  A    between atoms: _179  and  _180
REMARK   78  A    between atoms: _185  and  _186
REMARK   79  A    between atoms: _188  and  _190
REMARK   80  A    between atoms: _190  and  _191
REMARK   81  A    between atoms: _190  and  _193
REMARK   82  A    between atoms: _193  and  _194
REMARK   83  A    between atoms: _196  and  _198
REMARK   84  A    between atoms: _198  and  _199
REMARK   85  A    between atoms: _198  and  _201
REMARK   86  A    between atoms: _201  and  _202
REMARK   87  A    between atoms: _205  and  _207
REMARK   88  A    between atoms: _207  and  _208
REMARK   89  A    between atoms: _207  and  _210
REMARK   90  A    between atoms: _210  and  _211
REMARK   91  A    between atoms: _211  and  _212
REMARK   92  A    between atoms: _214  and  _216
REMARK   93  A    between atoms: _216  and  _217
REMARK   94  A    between atoms: _219  and  _221
REMARK   95  A    between atoms: _221  and  _222
REMARK   96  A    between atoms: _221  and  _224
REMARK   97  A    between atoms: _224  and  _225
REMARK   98  A    between atoms: _228  and  _230
REMARK   99  A    between atoms: _230  and  _231
REMARK  100  A    between atoms: _230  and  _233
REMARK  101  A    between atoms: _233  and  _234
REMARK  102  A    between atoms: _234  and  _235
REMARK  103  A    between atoms: _237  and  _239
REMARK  104  A    between atoms: _239  and  _240
REMARK  105  A    between atoms: _239  and  _242
REMARK  106  A    between atoms: _245  and  _247
REMARK  107  A    between atoms: _247  and  _248
REMARK  108  A    between atoms: _247  and  _250
REMARK  109  A    between atoms: _250  and  _251
REMARK  110  A    between atoms: _257  and  _259
REMARK  111  A    between atoms: _259  and  _260
REMARK  112  A    between atoms: _263  and  _265
REMARK  113  A    between atoms: _265  and  _266
REMARK  114  A    between atoms: _265  and  _268
REMARK  115  A    between atoms: _268  and  _269
REMARK  116  A    between atoms: _269  and  _270
REMARK  117  A    between atoms: _272  and  _274
REMARK  118  A    between atoms: _274  and  _275
REMARK  119  A    between atoms: _277  and  _279
REMARK  120  A    between atoms: _279  and  _280
REMARK  121  A    between atoms: _279  and  _282
REMARK  122  A    between atoms: _282  and  _283
REMARK  123  A    between atoms: _293  and  _295
REMARK  124  A    between atoms: _295  and  _296
REMARK  125  A    between atoms: _295  and  _298
REMARK  126  A    between atoms: _298  and  _299
REMARK  127  A    between atoms: _299  and  _300
REMARK  128  A    between atoms: _300  and  _301
REMARK  129  A    between atoms: _310  and  _312
REMARK  130  A    between atoms: _312  and  _313
REMARK  131  A    between atoms: _312  and  _315
REMARK  132  A    between atoms: _315  and  _316
REMARK  133  A    between atoms: _318  and  _320
REMARK  134  A    between atoms: _320  and  _321
REMARK  135  A    between atoms: _320  and  _323
REMARK  136  A    between atoms: _323  and  _324
REMARK  137  A    between atoms: _327  and  _329
REMARK  138  A    between atoms: _329  and  _330
REMARK  139  A    between atoms: _329  and  _332
REMARK  140  A    between atoms: _332  and  _333
REMARK  141  A    between atoms: _338  and  _339
REMARK  142  A    between atoms: _341  and  _343
REMARK  143  A    between atoms: _343  and  _344
REMARK  144  A    between atoms: _343  and  _346
REMARK  145  A    between atoms: _346  and  _347
REMARK  146  A    between atoms: _353  and  _355
REMARK  147  A    between atoms: _355  and  _356
REMARK  148  A    between atoms: _359  and  _361
REMARK  149  A    between atoms: _361  and  _362
REMARK  150  A    between atoms: _361  and  _364
REMARK  151  A    between atoms: _364  and  _365
REMARK  152  A    between atoms: _368  and  _370
REMARK  153  A    between atoms: _370  and  _371
REMARK  154  A    between atoms: _370  and  _373
REMARK  155  A    between atoms: _373  and  _374
REMARK  156  A    between atoms: _380  and  _382
REMARK  157  A    between atoms: _382  and  _383
REMARK  158  A    between atoms: _382  and  _385
REMARK  159  A    between atoms: _385  and  _386
REMARK  160  A    between atoms: _388  and  _390
REMARK  161  A    between atoms: _390  and  _391
REMARK  162  A    between atoms: _390  and  _393
REMARK  163  A    between atoms: _393  and  _394
REMARK  164  A    between atoms: _394  and  _395
REMARK  165  A    between atoms: _397  and  _399
REMARK  166  A    between atoms: _399  and  _400
REMARK  167  A    between atoms: _399  and  _402
REMARK  168  A    between atoms: _402  and  _403
REMARK  169  A    between atoms: _403  and  _404
REMARK  170  A    between atoms: _409  and  _411
REMARK  171  A    between atoms: _411  and  _412
REMARK  172  A    between atoms: _411  and  _414
REMARK  173  A    between atoms: _416  and  _418
REMARK  174  A    between atoms: _418  and  _419
REMARK  175  A    between atoms: _418  and  _421
REMARK  176  A    between atoms: _421  and  _422
REMARK  177  A    between atoms: _422  and  _423
REMARK  178  A    between atoms: _425  and  _427
REMARK  179  A    between atoms: _427  and  _428
REMARK  180  A    between atoms: _427  and  _430
REMARK  181  A    between atoms: _430  and  _431
REMARK  182  A    between atoms: _434  and  _436
REMARK  183  A    between atoms: _436  and  _437
REMARK  184  A    between atoms: _436  and  _439
REMARK  185  A    between atoms: _439  and  _440
REMARK  186  A    between atoms: _443  and  _445
REMARK  187  A    between atoms: _445  and  _446
REMARK  188  A    between atoms: _445  and  _448
REMARK  189  A    between atoms: _451  and  _453
REMARK  190  A    between atoms: _453  and  _454
REMARK  191  A    between atoms: _453  and  _456
REMARK  192  A    between atoms: _456  and  _457
REMARK  193  A    between atoms: _460  and  _462
REMARK  194  A    between atoms: _462  and  _463
REMARK  195  A    between atoms: _466  and  _468
REMARK  196  A    between atoms: _468  and  _469
REMARK  197  A    between atoms: _468  and  _471
REMARK  198  A    between atoms: _471  and  _472
REMARK  199  A    between atoms: _475  and  _477
REMARK  200  A    between atoms: _477  and  _478
REMARK  201  A    between atoms: _477  and  _480
REMARK  202  A    between atoms: _480  and  _481
REMARK  203  A    between atoms: _486  and  _488
REMARK  204  A    between atoms: _488  and  _489
REMARK  205  A    between atoms: _488  and  _491
REMARK  206  A    between atoms: _491  and  _492
REMARK  207  A    between atoms: _498  and  _500
REMARK  208  A    between atoms: _500  and  _501
REMARK  209  A    between atoms: _500  and  _503
REMARK  210  A    between atoms: _503  and  _504
REMARK  211  A    between atoms: _507  and  _509
REMARK  212  A    between atoms: _509  and  _510
REMARK  213  A    between atoms: _509  and  _512
REMARK  214  A    between atoms: _512  and  _513
REMARK  215  A    between atoms: _519  and  _521
REMARK  216  A    between atoms: _521  and  _522
REMARK  217  A    between atoms: _521  and  _524
REMARK  218  A    between atoms: _524  and  _525
REMARK  219  A    between atoms: _528  and  _530
REMARK  220  A    between atoms: _530  and  _531
REMARK  221  A    between atoms: _530  and  _533
REMARK  222  A    between atoms: _533  and  _534
REMARK  223  A    between atoms: _537  and  _539
REMARK  224  A    between atoms: _539  and  _540
REMARK  225  A    between atoms: _539  and  _542
REMARK  226  A    between atoms: _545  and  _547
REMARK  227  A    between atoms: _547  and  _548
REMARK  228  A    between atoms: _547  and  _550
REMARK  229  A    between atoms: _550  and  _551
REMARK  230  A    between atoms: _554  and  _556
REMARK  231  A    between atoms: _556  and  _557
REMARK  232  A    between atoms: _556  and  _559
REMARK  233  A    between atoms: _559  and  _560
REMARK  234  A    between atoms: _567  and  _568
REMARK  235  A    between atoms: _573  and  _575
REMARK  236  A    between atoms: _575  and  _576
REMARK  237  A    between atoms: _575  and  _578
REMARK  238  A    between atoms: _578  and  _579
REMARK  239  A    between atoms: _579  and  _580
REMARK  240  A    between atoms: _582  and  _584
REMARK  241  A    between atoms: _584  and  _585
REMARK  242  A    between atoms: _584  and  _587
REMARK  243  A    between atoms: _587  and  _588
REMARK  244  A    between atoms: _588  and  _589
REMARK  245  A    between atoms: _591  and  _593
REMARK  246  A    between atoms: _593  and  _594
REMARK  247  A    between atoms: _597  and  _599
REMARK  248  A    between atoms: _599  and  _600
REMARK  249  A    between atoms: _599  and  _602
REMARK  250  A    between atoms: _602  and  _603
REMARK  251  A    between atoms: _603  and  _604
REMARK  252  A    between atoms: _607  and  _609
REMARK  253  A    between atoms: _609  and  _610
REMARK  254  A    between atoms: _609  and  _612
REMARK  255  A    between atoms: _612  and  _613
REMARK  256  A    between atoms: _616  and  _618
REMARK  257  A    between atoms: _618  and  _619
REMARK  258  A    between atoms: _618  and  _621
REMARK  259  A    between atoms: _621  and  _622
REMARK  260  A    between atoms: _625  and  _627
REMARK  261  A    between atoms: _627  and  _628
REMARK  262  A    between atoms: _627  and  _630
REMARK  263  A    between atoms: _630  and  _631
REMARK  264  A    between atoms: _633  and  _635
REMARK  265  A    between atoms: _635  and  _636
REMARK  266  A    between atoms: _635  and  _638
REMARK  267  A    between atoms: _641  and  _643
REMARK  268  A    between atoms: _643  and  _644
REMARK  269  A    between atoms: _643  and  _646
REMARK  270  A    between atoms: _646  and  _647
REMARK  271  A    between atoms: _647  and  _648
REMARK  272  A    between atoms: _653  and  _655
REMARK  273  A    between atoms: _655  and  _656
REMARK  274  A    between atoms: _655  and  _658
REMARK  275  A    between atoms: _662  and  _663
REMARK  276  A    between atoms: _668  and  _670
REMARK  277  A    between atoms: _670  and  _671
REMARK  278  A    between atoms: _670  and  _673
REMARK  279  A    between atoms: _673  and  _674
REMARK                            x       y       z     vdW  Elec       q    Type
REMARK                         _______ _______ _______ _____ _____    ______ ____
ROOT
ATOM      1  O   HOH     1      25.085  14.250   3.063  0.00  0.00    +0.000 OA
ENDROOT
TORSDOF 0
REMARK  Name = ../refined-set-2016/1z95/1z95_pocket.pdb
REMARK  279 active torsions:
REMARK  status: ('A' for Active; 'I' for Inactive)
REMARK    1  A    between atoms: _1  and  _3
REMARK    2  A    between atoms: _3  and  _4
REMARK    3  A    between atoms: _3  and  _6
REMARK    4  A    between atoms: _9  and  _11
REMARK    5  A    between atoms: _11  and  _12
REMARK    6  A    between atoms: _15  and  _17
REMARK    7  A    between atoms: _17  and  _18
REMARK    8  A    between atoms: _17  and  _20
REMARK    9  A    between atoms: _20  and  _21
REMARK   10  A    between atoms: _27  and  _29
REMARK   11  A    between atoms: _29  and  _30
REMARK   12  A    between atoms: _29  and  _32
REMARK   13  A    between atoms: _32  and  _33
REMARK   14  A    between atoms: _36  and  _38
REMARK   15  A    between atoms: _38  and  _39
REMARK   16  A    between atoms: _38  and  _41
REMARK   17  A    between atoms: _41  and  _42
REMARK   18  A    between atoms: _45  and  _47
REMARK   19  A    between atoms: _47  and  _48
REMARK   20  A    between atoms: _47  and  _50
REMARK   21  A    between atoms: _50  and  _51
REMARK   22  A    between atoms: _53  and  _55
REMARK   23  A    between atoms: _55  and  _56
REMARK   24  A    between atoms: _55  and  _58
REMARK   25  A    between atoms: _58  and  _59
REMARK   26  A    between atoms: _61  and  _63
REMARK   27  A    between atoms: _63  and  _64
REMARK   28  A    between atoms: _63  and  _66
REMARK   29  A    between atoms: _66  and  _67
REMARK   30  A    between atoms: _70  and  _72
REMARK   31  A    between atoms: _72  and  _73
REMARK   32  A    between atoms: _72  and  _75
REMARK   33  A    between atoms: _75  and  _76
REMARK   34  A    between atoms: _81  and  _83
REMARK   35  A    between atoms: _83  and  _84
REMARK   36  A    between atoms: _83  and  _86
REMARK   37  A    between atoms: _86  and  _87
REMARK   38  A    between atoms: _87  and  _88
REMARK   39  A    between atoms: _91  and  _93
REMARK   40  A    between atoms: _93  and  _94
REMARK   41  A    between atoms: _93  and  _96
REMARK   42  A    between atoms: _96  and  _97
REMARK   43  A    between atoms: _100  and  _102
REMARK   44  A    between atoms: _102  and  _103
REMARK   45  A    between atoms: _105  and  _107
REMARK   46  A    between atoms: _107  and  _108
REMARK   47  A    between atoms: _107  and  _110
REMARK   48  A    between atoms: _110  and  _111
REMARK   49  A    between atoms: _111  and  _112
REMARK   50  A    between atoms: _115  and  _117
REMARK   51  A    between atoms: _117  and  _118
REMARK   52  A    between atoms: _117  and  _120
REMARK   53  A    between atoms: _120  and  _121
REMARK   54  A    between atoms: _121  and  _122
REMARK   55  A    between atoms: _122  and  _123
REMARK   56  A    between atoms: _132  and  _134
REMARK   57  A    between atoms: _134  and  _135
REMARK   58  A    between atoms: _134  and  _137
REMARK   59  A    between atoms: _137  and  _138
REMARK   60  A    between atoms: _138  and  _139
REMARK   61  A    between atoms: _144  and  _146
REMARK   62  A    between atoms: _146  and  _147
REMARK   63  A    between atoms: _146  and  _149
REMARK   64  A    between atoms: _149  and  _150
REMARK   65  A    between atoms: _153  and  _155
REMARK   66  A    between atoms: _155  and  _156
REMARK   67  A    between atoms: _155  and  _158
REMARK   68  A    between atoms: _158  and  _159
REMARK   69  A    between atoms: _162  and  _164
REMARK   70  A    between atoms: _164  and  _165
REMARK   71  A    between atoms: _164  and  _167
REMARK   72  A    between atoms: _167  and  _168
REMARK   73  A    between atoms: _168  and  _169
REMARK   74  A    between atoms: _174  and  _176
REMARK   75  A    between atoms: _176  and  _177
REMARK   76  A    between atoms: _176  and  _179
REMARK   77  A    between atoms: _179  and  _180
REMARK   78  A    between atoms: _185  and  _186
REMARK   79  A    between atoms: _188  and  _190
REMARK   80  A    between atoms: _190  and  _191
REMARK   81  A    between atoms: _190  and  _193
REMARK   82  A    between atoms: _193  and  _194
REMARK   83  A    between atoms: _196  and  _198
REMARK   84  A    between atoms: _198  and  _199
REMARK   85  A    between atoms: _198  and  _201
REMARK   86  A    between atoms: _201  and  _202
REMARK   87  A    between atoms: _205  and  _207
REMARK   88  A    between atoms: _207  and  _208
REMARK   89  A    between atoms: _207  and  _210
REMARK   90  A    between atoms: _210  and  _211
REMARK   91  A    between atoms: _211  and  _212
REMARK   92  A    between atoms: _214  and  _216
REMARK   93  A    between atoms: _216  and  _217
REMARK   94  A    between atoms: _219  and  _221
REMARK   95  A    between atoms: _221  and  _222
REMARK   96  A    between atoms: _221  and  _224
REMARK   97  A    between atoms: _224  and  _225
REMARK   98  A    between atoms: _228  and  _230
REMARK   99  A    between atoms: _230  and  _231
REMARK  100  A    between atoms: _230  and  _233
REMARK  101  A    between atoms: _233  and  _234
REMARK  102  A    between atoms: _234  and  _235
REMARK  103  A    between atoms: _237  and  _239
REMARK  104  A    between atoms: _239  and  _240
REMARK  105  A    between atoms: _239  and  _242
REMARK  106  A    between atoms: _245  and  _247
REMARK  107  A    between atoms: _247  and  _248
REMARK  108  A    between atoms: _247  and  _250
REMARK  109  A    between atoms: _250  and  _251
REMARK  110  A    between atoms: _257  and  _259
REMARK  111  A    between atoms: _259  and  _260
REMARK  112  A    between atoms: _263  and  _265
REMARK  113  A    between atoms: _265  and  _266
REMARK  114  A    between atoms: _265  and  _268
REMARK  115  A    between atoms: _268  and  _269
REMARK  116  A    between atoms: _269  and  _270
REMARK  117  A    between atoms: _272  and  _274
REMARK  118  A    between atoms: _274  and  _275
REMARK  119  A    between atoms: _277  and  _279
REMARK  120  A    between atoms: _279  and  _280
REMARK  121  A    between atoms: _279  and  _282
REMARK  122  A    between atoms: _282  and  _283
REMARK  123  A    between atoms: _293  and  _295
REMARK  124  A    between atoms: _295  and  _296
REMARK  125  A    between atoms: _295  and  _298
REMARK  126  A    between atoms: _298  and  _299
REMARK  127  A    between atoms: _299  and  _300
REMARK  128  A    between atoms: _300  and  _301
REMARK  129  A    between atoms: _310  and  _312
REMARK  130  A    between atoms: _312  and  _313
REMARK  131  A    between atoms: _312  and  _315
REMARK  132  A    between atoms: _315  and  _316
REMARK  133  A    between atoms: _318  and  _320
REMARK  134  A    between atoms: _320  and  _321
REMARK  135  A    between atoms: _320  and  _323
REMARK  136  A    between atoms: _323  and  _324
REMARK  137  A    between atoms: _327  and  _329
REMARK  138  A    between atoms: _329  and  _330
REMARK  139  A    between atoms: _329  and  _332
REMARK  140  A    between atoms: _332  and  _333
REMARK  141  A    between atoms: _338  and  _339
REMARK  142  A    between atoms: _341  and  _343
REMARK  143  A    between atoms: _343  and  _344
REMARK  144  A    between atoms: _343  and  _346
REMARK  145  A    between atoms: _346  and  _347
REMARK  146  A    between atoms: _353  and  _355
REMARK  147  A    between atoms: _355  and  _356
REMARK  148  A    between atoms: _359  and  _361
REMARK  149  A    between atoms: _361  and  _362
REMARK  150  A    between atoms: _361  and  _364
REMARK  151  A    between atoms: _364  and  _365
REMARK  152  A    between atoms: _368  and  _370
REMARK  153  A    between atoms: _370  and  _371
REMARK  154  A    between atoms: _370  and  _373
REMARK  155  A    between atoms: _373  and  _374
REMARK  156  A    between atoms: _380  and  _382
REMARK  157  A    between atoms: _382  and  _383
REMARK  158  A    between atoms: _382  and  _385
REMARK  159  A    between atoms: _385  and  _386
REMARK  160  A    between atoms: _388  and  _390
REMARK  161  A    between atoms: _390  and  _391
REMARK  162  A    between atoms: _390  and  _393
REMARK  163  A    between atoms: _393  and  _394
REMARK  164  A    between atoms: _394  and  _395
REMARK  165  A    between atoms: _397  and  _399
REMARK  166  A    between atoms: _399  and  _400
REMARK  167  A    between atoms: _399  and  _402
REMARK  168  A    between atoms: _402  and  _403
REMARK  169  A    between atoms: _403  and  _404
REMARK  170  A    between atoms: _409  and  _411
REMARK  171  A    between atoms: _411  and  _412
REMARK  172  A    between atoms: _411  and  _414
REMARK  173  A    between atoms: _416  and  _418
REMARK  174  A    between atoms: _418  and  _419
REMARK  175  A    between atoms: _418  and  _421
REMARK  176  A    between atoms: _421  and  _422
REMARK  177  A    between atoms: _422  and  _423
REMARK  178  A    between atoms: _425  and  _427
REMARK  179  A    between atoms: _427  and  _428
REMARK  180  A    between atoms: _427  and  _430
REMARK  181  A    between atoms: _430  and  _431
REMARK  182  A    between atoms: _434  and  _436
REMARK  183  A    between atoms: _436  and  _437
REMARK  184  A    between atoms: _436  and  _439
REMARK  185  A    between atoms: _439  and  _440
REMARK  186  A    between atoms: _443  and  _445
REMARK  187  A    between atoms: _445  and  _446
REMARK  188  A    between atoms: _445  and  _448
REMARK  189  A    between atoms: _451  and  _453
REMARK  190  A    between atoms: _453  and  _454
REMARK  191  A    between atoms: _453  and  _456
REMARK  192  A    between atoms: _456  and  _457
REMARK  193  A    between atoms: _460  and  _462
REMARK  194  A    between atoms: _462  and  _463
REMARK  195  A    between atoms: _466  and  _468
REMARK  196  A    between atoms: _468  and  _469
REMARK  197  A    between atoms: _468  and  _471
REMARK  198  A    between atoms: _471  and  _472
REMARK  199  A    between atoms: _475  and  _477
REMARK  200  A    between atoms: _477  and  _478
REMARK  201  A    between atoms: _477  and  _480
REMARK  202  A    between atoms: _480  and  _481
REMARK  203  A    between atoms: _486  and  _488
REMARK  204  A    between atoms: _488  and  _489
REMARK  205  A    between atoms: _488  and  _491
REMARK  206  A    between atoms: _491  and  _492
REMARK  207  A    between atoms: _498  and  _500
REMARK  208  A    between atoms: _500  and  _501
REMARK  209  A    between atoms: _500  and  _503
REMARK  210  A    between atoms: _503  and  _504
REMARK  211  A    between atoms: _507  and  _509
REMARK  212  A    between atoms: _509  and  _510
REMARK  213  A    between atoms: _509  and  _512
REMARK  214  A    between atoms: _512  and  _513
REMARK  215  A    between atoms: _519  and  _521
REMARK  216  A    between atoms: _521  and  _522
REMARK  217  A    between atoms: _521  and  _524
REMARK  218  A    between atoms: _524  and  _525
REMARK  219  A    between atoms: _528  and  _530
REMARK  220  A    between atoms: _530  and  _531
REMARK  221  A    between atoms: _530  and  _533
REMARK  222  A    between atoms: _533  and  _534
REMARK  223  A    between atoms: _537  and  _539
REMARK  224  A    between atoms: _539  and  _540
REMARK  225  A    between atoms: _539  and  _542
REMARK  226  A    between atoms: _545  and  _547
REMARK  227  A    between atoms: _547  and  _548
REMARK  228  A    between atoms: _547  and  _550
REMARK  229  A    between atoms: _550  and  _551
REMARK  230  A    between atoms: _554  and  _556
REMARK  231  A    between atoms: _556  and  _557
REMARK  232  A    between atoms: _556  and  _559
REMARK  233  A    between atoms: _559  and  _560
REMARK  234  A    between atoms: _567  and  _568
REMARK  235  A    between atoms: _573  and  _575
REMARK  236  A    between atoms: _575  and  _576
REMARK  237  A    between atoms: _575  and  _578
REMARK  238  A    between atoms: _578  and  _579
REMARK  239  A    between atoms: _579  and  _580
REMARK  240  A    between atoms: _582  and  _584
REMARK  241  A    between atoms: _584  and  _585
REMARK  242  A    between atoms: _584  and  _587
REMARK  243  A    between atoms: _587  and  _588
REMARK  244  A    between atoms: _588  and  _589
REMARK  245  A    between atoms: _591  and  _593
REMARK  246  A    between atoms: _593  and  _594
REMARK  247  A    between atoms: _597  and  _599
REMARK  248  A    between atoms: _599  and  _600
REMARK  249  A    between atoms: _599  and  _602
REMARK  250  A    between atoms: _602  and  _603
REMARK  251  A    between atoms: _603  and  _604
REMARK  252  A    between atoms: _607  and  _609
REMARK  253  A    between atoms: _609  and  _610
REMARK  254  A    between atoms: _609  and  _612
REMARK  255  A    between atoms: _612  and  _613
REMARK  256  A    between atoms: _616  and  _618
REMARK  257  A    between atoms: _618  and  _619
REMARK  258  A    between atoms: _618  and  _621
REMARK  259  A    between atoms: _621  and  _622
REMARK  260  A    between atoms: _625  and  _627
REMARK  261  A    between atoms: _627  and  _628
REMARK  262  A    between atoms: _627  and  _630
REMARK  263  A    between atoms: _630  and  _631
REMARK  264  A    between atoms: _633  and  _635
REMARK  265  A    between atoms: _635  and  _636
REMARK  266  A    between atoms: _635  and  _638
REMARK  267  A    between atoms: _641  and  _643
REMARK  268  A    between atoms: _643  and  _644
REMARK  269  A    between atoms: _643  and  _646
REMARK  270  A    between atoms: _646  and  _647
REMARK  271  A    between atoms: _647  and  _648
REMARK  272  A    between atoms: _653  and  _655
REMARK  273  A    between atoms: _655  and  _656
REMARK  274  A    between atoms: _655  and  _658
REMARK  275  A    between atoms: _662  and  _663
REMARK  276  A    between atoms: _668  and  _670
REMARK  277  A    between atoms: _670  and  _671
REMARK  278  A    between atoms: _670  and  _673
REMARK  279  A    between atoms: _673  and  _674
REMARK                            x       y       z     vdW  Elec       q    Type
REMARK                         _______ _______ _______ _____ _____    ______ ____
ROOT
ATOM      1  O   HOH     1      24.620  14.695   5.752  0.00  0.00    +0.000 OA
ENDROOT
TORSDOF 0
REMARK  Name = ../refined-set-2016/1z95/1z95_pocket.pdb
REMARK  279 active torsions:
REMARK  status: ('A' for Active; 'I' for Inactive)
REMARK    1  A    between atoms: _1  and  _3
REMARK    2  A    between atoms: _3  and  _4
REMARK    3  A    between atoms: _3  and  _6
REMARK    4  A    between atoms: _9  and  _11
REMARK    5  A    between atoms: _11  and  _12
REMARK    6  A    between atoms: _15  and  _17
REMARK    7  A    between atoms: _17  and  _18
REMARK    8  A    between atoms: _17  and  _20
REMARK    9  A    between atoms: _20  and  _21
REMARK   10  A    between atoms: _27  and  _29
REMARK   11  A    between atoms: _29  and  _30
REMARK   12  A    between atoms: _29  and  _32
REMARK   13  A    between atoms: _32  and  _33
REMARK   14  A    between atoms: _36  and  _38
REMARK   15  A    between atoms: _38  and  _39
REMARK   16  A    between atoms: _38  and  _41
REMARK   17  A    between atoms: _41  and  _42
REMARK   18  A    between atoms: _45  and  _47
REMARK   19  A    between atoms: _47  and  _48
REMARK   20  A    between atoms: _47  and  _50
REMARK   21  A    between atoms: _50  and  _51
REMARK   22  A    between atoms: _53  and  _55
REMARK   23  A    between atoms: _55  and  _56
REMARK   24  A    between atoms: _55  and  _58
REMARK   25  A    between atoms: _58  and  _59
REMARK   26  A    between atoms: _61  and  _63
REMARK   27  A    between atoms: _63  and  _64
REMARK   28  A    between atoms: _63  and  _66
REMARK   29  A    between atoms: _66  and  _67
REMARK   30  A    between atoms: _70  and  _72
REMARK   31  A    between atoms: _72  and  _73
REMARK   32  A    between atoms: _72  and  _75
REMARK   33  A    between atoms: _75  and  _76
REMARK   34  A    between atoms: _81  and  _83
REMARK   35  A    between atoms: _83  and  _84
REMARK   36  A    between atoms: _83  and  _86
REMARK   37  A    between atoms: _86  and  _87
REMARK   38  A    between atoms: _87  and  _88
REMARK   39  A    between atoms: _91  and  _93
REMARK   40  A    between atoms: _93  and  _94
REMARK   41  A    between atoms: _93  and  _96
REMARK   42  A    between atoms: _96  and  _97
REMARK   43  A    between atoms: _100  and  _102
REMARK   44  A    between atoms: _102  and  _103
REMARK   45  A    between atoms: _105  and  _107
REMARK   46  A    between atoms: _107  and  _108
REMARK   47  A    between atoms: _107  and  _110
REMARK   48  A    between atoms: _110  and  _111
REMARK   49  A    between atoms: _111  and  _112
REMARK   50  A    between atoms: _115  and  _117
REMARK   51  A    between atoms: _117  and  _118
REMARK   52  A    between atoms: _117  and  _120
REMARK   53  A    between atoms: _120  and  _121
REMARK   54  A    between atoms: _121  and  _122
REMARK   55  A    between atoms: _122  and  _123
REMARK   56  A    between atoms: _132  and  _134
REMARK   57  A    between atoms: _134  and  _135
REMARK   58  A    between atoms: _134  and  _137
REMARK   59  A    between atoms: _137  and  _138
REMARK   60  A    between atoms: _138  and  _139
REMARK   61  A    between atoms: _144  and  _146
REMARK   62  A    between atoms: _146  and  _147
REMARK   63  A    between atoms: _146  and  _149
REMARK   64  A    between atoms: _149  and  _150
REMARK   65  A    between atoms: _153  and  _155
REMARK   66  A    between atoms: _155  and  _156
REMARK   67  A    between atoms: _155  and  _158
REMARK   68  A    between atoms: _158  and  _159
REMARK   69  A    between atoms: _162  and  _164
REMARK   70  A    between atoms: _164  and  _165
REMARK   71  A    between atoms: _164  and  _167
REMARK   72  A    between atoms: _167  and  _168
REMARK   73  A    between atoms: _168  and  _169
REMARK   74  A    between atoms: _174  and  _176
REMARK   75  A    between atoms: _176  and  _177
REMARK   76  A    between atoms: _176  and  _179
REMARK   77  A    between atoms: _179  and  _180
REMARK   78  A    between atoms: _185  and  _186
REMARK   79  A    between atoms: _188  and  _190
REMARK   80  A    between atoms: _190  and  _191
REMARK   81  A    between atoms: _190  and  _193
REMARK   82  A    between atoms: _193  and  _194
REMARK   83  A    between atoms: _196  and  _198
REMARK   84  A    between atoms: _198  and  _199
REMARK   85  A    between atoms: _198  and  _201
REMARK   86  A    between atoms: _201  and  _202
REMARK   87  A    between atoms: _205  and  _207
REMARK   88  A    between atoms: _207  and  _208
REMARK   89  A    between atoms: _207  and  _210
REMARK   90  A    between atoms: _210  and  _211
REMARK   91  A    between atoms: _211  and  _212
REMARK   92  A    between atoms: _214  and  _216
REMARK   93  A    between atoms: _216  and  _217
REMARK   94  A    between atoms: _219  and  _221
REMARK   95  A    between atoms: _221  and  _222
REMARK   96  A    between atoms: _221  and  _224
REMARK   97  A    between atoms: _224  and  _225
REMARK   98  A    between atoms: _228  and  _230
REMARK   99  A    between atoms: _230  and  _231
REMARK  100  A    between atoms: _230  and  _233
REMARK  101  A    between atoms: _233  and  _234
REMARK  102  A    between atoms: _234  and  _235
REMARK  103  A    between atoms: _237  and  _239
REMARK  104  A    between atoms: _239  and  _240
REMARK  105  A    between atoms: _239  and  _242
REMARK  106  A    between atoms: _245  and  _247
REMARK  107  A    between atoms: _247  and  _248
REMARK  108  A    between atoms: _247  and  _250
REMARK  109  A    between atoms: _250  and  _251
REMARK  110  A    between atoms: _257  and  _259
REMARK  111  A    between atoms: _259  and  _260
REMARK  112  A    between atoms: _263  and  _265
REMARK  113  A    between atoms: _265  and  _266
REMARK  114  A    between atoms: _265  and  _268
REMARK  115  A    between atoms: _268  and  _269
REMARK  116  A    between atoms: _269  and  _270
REMARK  117  A    between atoms: _272  and  _274
REMARK  118  A    between atoms: _274  and  _275
REMARK  119  A    between atoms: _277  and  _279
REMARK  120  A    between atoms: _279  and  _280
REMARK  121  A    between atoms: _279  and  _282
REMARK  122  A    between atoms: _282  and  _283
REMARK  123  A    between atoms: _293  and  _295
REMARK  124  A    between atoms: _295  and  _296
REMARK  125  A    between atoms: _295  and  _298
REMARK  126  A    between atoms: _298  and  _299
REMARK  127  A    between atoms: _299  and  _300
REMARK  128  A    between atoms: _300  and  _301
REMARK  129  A    between atoms: _310  and  _312
REMARK  130  A    between atoms: _312  and  _313
REMARK  131  A    between atoms: _312  and  _315
REMARK  132  A    between atoms: _315  and  _316
REMARK  133  A    between atoms: _318  and  _320
REMARK  134  A    between atoms: _320  and  _321
REMARK  135  A    between atoms: _320  and  _323
REMARK  136  A    between atoms: _323  and  _324
REMARK  137  A    between atoms: _327  and  _329
REMARK  138  A    between atoms: _329  and  _330
REMARK  139  A    between atoms: _329  and  _332
REMARK  140  A    between atoms: _332  and  _333
REMARK  141  A    between atoms: _338  and  _339
REMARK  142  A    between atoms: _341  and  _343
REMARK  143  A    between atoms: _343  and  _344
REMARK  144  A    between atoms: _343  and  _346
REMARK  145  A    between atoms: _346  and  _347
REMARK  146  A    between atoms: _353  and  _355
REMARK  147  A    between atoms: _355  and  _356
REMARK  148  A    between atoms: _359  and  _361
REMARK  149  A    between atoms: _361  and  _362
REMARK  150  A    between atoms: _361  and  _364
REMARK  151  A    between atoms: _364  and  _365
REMARK  152  A    between atoms: _368  and  _370
REMARK  153  A    between atoms: _370  and  _371
REMARK  154  A    between atoms: _370  and  _373
REMARK  155  A    between atoms: _373  and  _374
REMARK  156  A    between atoms: _380  and  _382
REMARK  157  A    between atoms: _382  and  _383
REMARK  158  A    between atoms: _382  and  _385
REMARK  159  A    between atoms: _385  and  _386
REMARK  160  A    between atoms: _388  and  _390
REMARK  161  A    between atoms: _390  and  _391
REMARK  162  A    between atoms: _390  and  _393
REMARK  163  A    between atoms: _393  and  _394
REMARK  164  A    between atoms: _394  and  _395
REMARK  165  A    between atoms: _397  and  _399
REMARK  166  A    between atoms: _399  and  _400
REMARK  167  A    between atoms: _399  and  _402
REMARK  168  A    between atoms: _402  and  _403
REMARK  169  A    between atoms: _403  and  _404
REMARK  170  A    between atoms: _409  and  _411
REMARK  171  A    between atoms: _411  and  _412
REMARK  172  A    between atoms: _411  and  _414
REMARK  173  A    between atoms: _416  and  _418
REMARK  174  A    between atoms: _418  and  _419
REMARK  175  A    between atoms: _418  and  _421
REMARK  176  A    between atoms: _421  and  _422
REMARK  177  A    between atoms: _422  and  _423
REMARK  178  A    between atoms: _425  and  _427
REMARK  179  A    between atoms: _427  and  _428
REMARK  180  A    between atoms: _427  and  _430
REMARK  181  A    between atoms: _430  and  _431
REMARK  182  A    between atoms: _434  and  _436
REMARK  183  A    between atoms: _436  and  _437
REMARK  184  A    between atoms: _436  and  _439
REMARK  185  A    between atoms: _439  and  _440
REMARK  186  A    between atoms: _443  and  _445
REMARK  187  A    between atoms: _445  and  _446
REMARK  188  A    between atoms: _445  and  _448
REMARK  189  A    between atoms: _451  and  _453
REMARK  190  A    between atoms: _453  and  _454
REMARK  191  A    between atoms: _453  and  _456
REMARK  192  A    between atoms: _456  and  _457
REMARK  193  A    between atoms: _460  and  _462
REMARK  194  A    between atoms: _462  and  _463
REMARK  195  A    between atoms: _466  and  _468
REMARK  196  A    between atoms: _468  and  _469
REMARK  197  A    between atoms: _468  and  _471
REMARK  198  A    between atoms: _471  and  _472
REMARK  199  A    between atoms: _475  and  _477
REMARK  200  A    between atoms: _477  and  _478
REMARK  201  A    between atoms: _477  and  _480
REMARK  202  A    between atoms: _480  and  _481
REMARK  203  A    between atoms: _486  and  _488
REMARK  204  A    between atoms: _488  and  _489
REMARK  205  A    between atoms: _488  and  _491
REMARK  206  A    between atoms: _491  and  _492
REMARK  207  A    between atoms: _498  and  _500
REMARK  208  A    between atoms: _500  and  _501
REMARK  209  A    between atoms: _500  and  _503
REMARK  210  A    between atoms: _503  and  _504
REMARK  211  A    between atoms: _507  and  _509
REMARK  212  A    between atoms: _509  and  _510
REMARK  213  A    between atoms: _509  and  _512
REMARK  214  A    between atoms: _512  and  _513
REMARK  215  A    between atoms: _519  and  _521
REMARK  216  A    between atoms: _521  and  _522
REMARK  217  A    between atoms: _521  and  _524
REMARK  218  A    between atoms: _524  and  _525
REMARK  219  A    between atoms: _528  and  _530
REMARK  220  A    between atoms: _530  and  _531
REMARK  221  A    between atoms: _530  and  _533
REMARK  222  A    between atoms: _533  and  _534
REMARK  223  A    between atoms: _537  and  _539
REMARK  224  A    between atoms: _539  and  _540
REMARK  225  A    between atoms: _539  and  _542
REMARK  226  A    between atoms: _545  and  _547
REMARK  227  A    between atoms: _547  and  _548
REMARK  228  A    between atoms: _547  and  _550
REMARK  229  A    between atoms: _550  and  _551
REMARK  230  A    between atoms: _554  and  _556
REMARK  231  A    between atoms: _556  and  _557
REMARK  232  A    between atoms: _556  and  _559
REMARK  233  A    between atoms: _559  and  _560
REMARK  234  A    between atoms: _567  and  _568
REMARK  235  A    between atoms: _573  and  _575
REMARK  236  A    between atoms: _575  and  _576
REMARK  237  A    between atoms: _575  and  _578
REMARK  238  A    between atoms: _578  and  _579
REMARK  239  A    between atoms: _579  and  _580
REMARK  240  A    between atoms: _582  and  _584
REMARK  241  A    between atoms: _584  and  _585
REMARK  242  A    between atoms: _584  and  _587
REMARK  243  A    between atoms: _587  and  _588
REMARK  244  A    between atoms: _588  and  _589
REMARK  245  A    between atoms: _591  and  _593
REMARK  246  A    between atoms: _593  and  _594
REMARK  247  A    between atoms: _597  and  _599
REMARK  248  A    between atoms: _599  and  _600
REMARK  249  A    between atoms: _599  and  _602
REMARK  250  A    between atoms: _602  and  _603
REMARK  251  A    between atoms: _603  and  _604
REMARK  252  A    between atoms: _607  and  _609
REMARK  253  A    between atoms: _609  and  _610
REMARK  254  A    between atoms: _609  and  _612
REMARK  255  A    between atoms: _612  and  _613
REMARK  256  A    between atoms: _616  and  _618
REMARK  257  A    between atoms: _618  and  _619
REMARK  258  A    between atoms: _618  and  _621
REMARK  259  A    between atoms: _621  and  _622
REMARK  260  A    between atoms: _625  and  _627
REMARK  261  A    between atoms: _627  and  _628
REMARK  262  A    between atoms: _627  and  _630
REMARK  263  A    between atoms: _630  and  _631
REMARK  264  A    between atoms: _633  and  _635
REMARK  265  A    between atoms: _635  and  _636
REMARK  266  A    between atoms: _635  and  _638
REMARK  267  A    between atoms: _641  and  _643
REMARK  268  A    between atoms: _643  and  _644
REMARK  269  A    between atoms: _643  and  _646
REMARK  270  A    between atoms: _646  and  _647
REMARK  271  A    between atoms: _647  and  _648
REMARK  272  A    between atoms: _653  and  _655
REMARK  273  A    between atoms: _655  and  _656
REMARK  274  A    between atoms: _655  and  _658
REMARK  275  A    between atoms: _662  and  _663
REMARK  276  A    between atoms: _668  and  _670
REMARK  277  A    between atoms: _670  and  _671
REMARK  278  A    between atoms: _670  and  _673
REMARK  279  A    between atoms: _673  and  _674
REMARK                            x       y       z     vdW  Elec       q    Type
REMARK                         _______ _______ _______ _____ _____    ______ ____
ROOT
ATOM      1  O   HOH     1      26.138  12.417   7.364  0.00  0.00    +0.000 OA
ENDROOT
TORSDOF 0
