REMARK  Name = ../refined-set-2016/4p6w/4p6w_pocket.pdb
REMARK  262 active torsions:
REMARK  status: ('A' for Active; 'I' for Inactive)
REMARK    1  A    between atoms: _1  and  _3
REMARK    2  A    between atoms: _3  and  _4
REMARK    3  A    between atoms: _3  and  _6
REMARK    4  A    between atoms: _6  and  _7
REMARK    5  A    between atoms: _10  and  _12
REMARK    6  A    between atoms: _12  and  _13
REMARK    7  A    between atoms: _12  and  _15
REMARK    8  A    between atoms: _15  and  _16
REMARK    9  A    between atoms: _19  and  _21
REMARK   10  A    between atoms: _21  and  _22
REMARK   11  A    between atoms: _21  and  _24
REMARK   12  A    between atoms: _24  and  _25
REMARK   13  A    between atoms: _35  and  _37
REMARK   14  A    between atoms: _37  and  _38
REMARK   15  A    between atoms: _37  and  _40
REMARK   16  A    between atoms: _40  and  _41
REMARK   17  A    between atoms: _44  and  _46
REMARK   18  A    between atoms: _46  and  _47
REMARK   19  A    between atoms: _46  and  _49
REMARK   20  A    between atoms: _49  and  _50
REMARK   21  A    between atoms: _50  and  _51
REMARK   22  A    between atoms: _53  and  _55
REMARK   23  A    between atoms: _55  and  _56
REMARK   24  A    between atoms: _55  and  _58
REMARK   25  A    between atoms: _58  and  _59
REMARK   26  A    between atoms: _62  and  _64
REMARK   27  A    between atoms: _64  and  _65
REMARK   28  A    between atoms: _64  and  _67
REMARK   29  A    between atoms: _67  and  _68
REMARK   30  A    between atoms: _71  and  _73
REMARK   31  A    between atoms: _73  and  _74
REMARK   32  A    between atoms: _73  and  _76
REMARK   33  A    between atoms: _76  and  _77
REMARK   34  A    between atoms: _80  and  _82
REMARK   35  A    between atoms: _82  and  _83
REMARK   36  A    between atoms: _82  and  _85
REMARK   37  A    between atoms: _85  and  _86
REMARK   38  A    between atoms: _91  and  _93
REMARK   39  A    between atoms: _93  and  _94
REMARK   40  A    between atoms: _93  and  _96
REMARK   41  A    between atoms: _96  and  _97
REMARK   42  A    between atoms: _97  and  _98
REMARK   43  A    between atoms: _100  and  _102
REMARK   44  A    between atoms: _102  and  _103
REMARK   45  A    between atoms: _102  and  _105
REMARK   46  A    between atoms: _105  and  _106
REMARK   47  A    between atoms: _109  and  _111
REMARK   48  A    between atoms: _111  and  _112
REMARK   49  A    between atoms: _114  and  _116
REMARK   50  A    between atoms: _116  and  _117
REMARK   51  A    between atoms: _119  and  _121
REMARK   52  A    between atoms: _121  and  _122
REMARK   53  A    between atoms: _121  and  _124
REMARK   54  A    between atoms: _124  and  _125
REMARK   55  A    between atoms: _125  and  _126
REMARK   56  A    between atoms: _126  and  _127
REMARK   57  A    between atoms: _136  and  _138
REMARK   58  A    between atoms: _138  and  _139
REMARK   59  A    between atoms: _138  and  _141
REMARK   60  A    between atoms: _141  and  _142
REMARK   61  A    between atoms: _142  and  _143
REMARK   62  A    between atoms: _148  and  _150
REMARK   63  A    between atoms: _150  and  _151
REMARK   64  A    between atoms: _150  and  _153
REMARK   65  A    between atoms: _156  and  _158
REMARK   66  A    between atoms: _158  and  _159
REMARK   67  A    between atoms: _158  and  _161
REMARK   68  A    between atoms: _161  and  _162
REMARK   69  A    between atoms: _172  and  _174
REMARK   70  A    between atoms: _174  and  _175
REMARK   71  A    between atoms: _174  and  _177
REMARK   72  A    between atoms: _177  and  _178
REMARK   73  A    between atoms: _178  and  _179
REMARK   74  A    between atoms: _181  and  _183
REMARK   75  A    between atoms: _183  and  _184
REMARK   76  A    between atoms: _187  and  _189
REMARK   77  A    between atoms: _189  and  _190
REMARK   78  A    between atoms: _189  and  _192
REMARK   79  A    between atoms: _192  and  _193
REMARK   80  A    between atoms: _196  and  _198
REMARK   81  A    between atoms: _198  and  _199
REMARK   82  A    between atoms: _198  and  _201
REMARK   83  A    between atoms: _201  and  _202
REMARK   84  A    between atoms: _202  and  _203
REMARK   85  A    between atoms: _205  and  _207
REMARK   86  A    between atoms: _207  and  _208
REMARK   87  A    between atoms: _211  and  _213
REMARK   88  A    between atoms: _213  and  _214
REMARK   89  A    between atoms: _213  and  _216
REMARK   90  A    between atoms: _216  and  _217
REMARK   91  A    between atoms: _223  and  _225
REMARK   92  A    between atoms: _225  and  _226
REMARK   93  A    between atoms: _229  and  _231
REMARK   94  A    between atoms: _231  and  _232
REMARK   95  A    between atoms: _231  and  _234
REMARK   96  A    between atoms: _234  and  _235
REMARK   97  A    between atoms: _238  and  _240
REMARK   98  A    between atoms: _240  and  _241
REMARK   99  A    between atoms: _243  and  _245
REMARK  100  A    between atoms: _245  and  _246
REMARK  101  A    between atoms: _245  and  _248
REMARK  102  A    between atoms: _248  and  _249
REMARK  103  A    between atoms: _249  and  _250
REMARK  104  A    between atoms: _250  and  _251
REMARK  105  A    between atoms: _260  and  _262
REMARK  106  A    between atoms: _262  and  _263
REMARK  107  A    between atoms: _262  and  _265
REMARK  108  A    between atoms: _265  and  _266
REMARK  109  A    between atoms: _268  and  _270
REMARK  110  A    between atoms: _270  and  _271
REMARK  111  A    between atoms: _270  and  _273
REMARK  112  A    between atoms: _273  and  _274
REMARK  113  A    between atoms: _277  and  _279
REMARK  114  A    between atoms: _279  and  _280
REMARK  115  A    between atoms: _279  and  _282
REMARK  116  A    between atoms: _282  and  _283
REMARK  117  A    between atoms: _288  and  _289
REMARK  118  A    between atoms: _291  and  _293
REMARK  119  A    between atoms: _293  and  _294
REMARK  120  A    between atoms: _293  and  _296
REMARK  121  A    between atoms: _296  and  _297
REMARK  122  A    between atoms: _303  and  _305
REMARK  123  A    between atoms: _305  and  _306
REMARK  124  A    between atoms: _309  and  _311
REMARK  125  A    between atoms: _311  and  _312
REMARK  126  A    between atoms: _311  and  _314
REMARK  127  A    between atoms: _314  and  _315
REMARK  128  A    between atoms: _318  and  _320
REMARK  129  A    between atoms: _320  and  _321
REMARK  130  A    between atoms: _320  and  _323
REMARK  131  A    between atoms: _323  and  _324
REMARK  132  A    between atoms: _327  and  _329
REMARK  133  A    between atoms: _329  and  _330
REMARK  134  A    between atoms: _329  and  _332
REMARK  135  A    between atoms: _332  and  _333
REMARK  136  A    between atoms: _333  and  _334
REMARK  137  A    between atoms: _334  and  _335
REMARK  138  A    between atoms: _344  and  _346
REMARK  139  A    between atoms: _346  and  _347
REMARK  140  A    between atoms: _346  and  _349
REMARK  141  A    between atoms: _349  and  _350
REMARK  142  A    between atoms: _350  and  _351
REMARK  143  A    between atoms: _353  and  _355
REMARK  144  A    between atoms: _355  and  _356
REMARK  145  A    between atoms: _355  and  _358
REMARK  146  A    between atoms: _358  and  _359
REMARK  147  A    between atoms: _363  and  _364
REMARK  148  A    between atoms: _369  and  _371
REMARK  149  A    between atoms: _371  and  _372
REMARK  150  A    between atoms: _371  and  _374
REMARK  151  A    between atoms: _376  and  _378
REMARK  152  A    between atoms: _378  and  _379
REMARK  153  A    between atoms: _378  and  _381
REMARK  154  A    between atoms: _381  and  _382
REMARK  155  A    between atoms: _382  and  _383
REMARK  156  A    between atoms: _385  and  _387
REMARK  157  A    between atoms: _387  and  _388
REMARK  158  A    between atoms: _387  and  _390
REMARK  159  A    between atoms: _390  and  _391
REMARK  160  A    between atoms: _396  and  _397
REMARK  161  A    between atoms: _399  and  _401
REMARK  162  A    between atoms: _401  and  _402
REMARK  163  A    between atoms: _401  and  _404
REMARK  164  A    between atoms: _404  and  _405
REMARK  165  A    between atoms: _408  and  _410
REMARK  166  A    between atoms: _410  and  _411
REMARK  167  A    between atoms: _410  and  _413
REMARK  168  A    between atoms: _413  and  _414
REMARK  169  A    between atoms: _414  and  _415
REMARK  170  A    between atoms: _420  and  _422
REMARK  171  A    between atoms: _422  and  _423
REMARK  172  A    between atoms: _422  and  _425
REMARK  173  A    between atoms: _427  and  _429
REMARK  174  A    between atoms: _429  and  _430
REMARK  175  A    between atoms: _429  and  _432
REMARK  176  A    between atoms: _432  and  _433
REMARK  177  A    between atoms: _433  and  _434
REMARK  178  A    between atoms: _434  and  _435
REMARK  179  A    between atoms: _435  and  _436
REMARK  180  A    between atoms: _440  and  _442
REMARK  181  A    between atoms: _442  and  _443
REMARK  182  A    between atoms: _442  and  _445
REMARK  183  A    between atoms: _445  and  _446
REMARK  184  A    between atoms: _451  and  _453
REMARK  185  A    between atoms: _453  and  _454
REMARK  186  A    between atoms: _453  and  _456
REMARK  187  A    between atoms: _456  and  _457
REMARK  188  A    between atoms: _457  and  _458
REMARK  189  A    between atoms: _460  and  _462
REMARK  190  A    between atoms: _462  and  _463
REMARK  191  A    between atoms: _462  and  _465
REMARK  192  A    between atoms: _468  and  _470
REMARK  193  A    between atoms: _470  and  _471
REMARK  194  A    between atoms: _470  and  _473
REMARK  195  A    between atoms: _476  and  _478
REMARK  196  A    between atoms: _478  and  _479
REMARK  197  A    between atoms: _478  and  _481
REMARK  198  A    between atoms: _481  and  _482
REMARK  199  A    between atoms: _487  and  _489
REMARK  200  A    between atoms: _489  and  _490
REMARK  201  A    between atoms: _489  and  _492
REMARK  202  A    between atoms: _492  and  _493
REMARK  203  A    between atoms: _496  and  _498
REMARK  204  A    between atoms: _498  and  _499
REMARK  205  A    between atoms: _498  and  _501
REMARK  206  A    between atoms: _501  and  _502
REMARK  207  A    between atoms: _505  and  _507
REMARK  208  A    between atoms: _507  and  _508
REMARK  209  A    between atoms: _507  and  _510
REMARK  210  A    between atoms: _510  and  _511
REMARK  211  A    between atoms: _516  and  _518
REMARK  212  A    between atoms: _518  and  _519
REMARK  213  A    between atoms: _518  and  _521
REMARK  214  A    between atoms: _521  and  _522
REMARK  215  A    between atoms: _527  and  _528
REMARK  216  A    between atoms: _530  and  _532
REMARK  217  A    between atoms: _532  and  _533
REMARK  218  A    between atoms: _532  and  _535
REMARK  219  A    between atoms: _537  and  _539
REMARK  220  A    between atoms: _539  and  _540
REMARK  221  A    between atoms: _539  and  _542
REMARK  222  A    between atoms: _542  and  _543
REMARK  223  A    between atoms: _549  and  _551
REMARK  224  A    between atoms: _551  and  _552
REMARK  225  A    between atoms: _551  and  _554
REMARK  226  A    between atoms: _554  and  _555
REMARK  227  A    between atoms: _555  and  _556
REMARK  228  A    between atoms: _561  and  _563
REMARK  229  A    between atoms: _563  and  _564
REMARK  230  A    between atoms: _563  and  _566
REMARK  231  A    between atoms: _566  and  _567
REMARK  232  A    between atoms: _570  and  _572
REMARK  233  A    between atoms: _572  and  _573
REMARK  234  A    between atoms: _572  and  _575
REMARK  235  A    between atoms: _575  and  _576
REMARK  236  A    between atoms: _582  and  _584
REMARK  237  A    between atoms: _584  and  _585
REMARK  238  A    between atoms: _584  and  _587
REMARK  239  A    between atoms: _587  and  _588
REMARK  240  A    between atoms: _588  and  _589
REMARK  241  A    between atoms: _591  and  _593
REMARK  242  A    between atoms: _593  and  _594
REMARK  243  A    between atoms: _593  and  _596
REMARK  244  A    between atoms: _596  and  _597
REMARK  245  A    between atoms: _600  and  _602
REMARK  246  A    between atoms: _602  and  _603
REMARK  247  A    between atoms: _602  and  _605
REMARK  248  A    between atoms: _605  and  _606
REMARK  249  A    between atoms: _606  and  _607
REMARK  250  A    between atoms: _610  and  _612
REMARK  251  A    between atoms: _612  and  _613
REMARK  252  A    between atoms: _612  and  _615
REMARK  253  A    between atoms: _615  and  _616
REMARK  254  A    between atoms: _623  and  _624
REMARK  255  A    between atoms: _629  and  _631
REMARK  256  A    between atoms: _631  and  _632
REMARK  257  A    between atoms: _631  and  _634
REMARK  258  A    between atoms: _634  and  _635
REMARK  259  A    between atoms: _638  and  _640
REMARK  260  A    between atoms: _640  and  _641
REMARK  261  A    between atoms: _640  and  _643
REMARK  262  A    between atoms: _643  and  _644
REMARK                            x       y       z     vdW  Elec       q    Type
REMARK                         _______ _______ _______ _____ _____    ______ ____
ROOT
ATOM      1  CA  LEU A   1      32.453 -57.016 -49.543  0.00  0.00    +0.133 C 
ENDROOT
BRANCH   1   2
ATOM      2  N   LEU A   1      31.442 -58.066 -49.570  0.00  0.00    -0.239 NA
ATOM      3  H   LEU A   1      30.593 -57.963 -48.979  0.00  0.00    +0.142 HD
ENDBRANCH   1   2
BRANCH   1   4
ATOM      4  C   LEU A   1      33.472 -57.231 -48.429  0.00  0.00    +0.224 C 
ATOM      5  O   LEU A   1      33.162 -57.826 -47.395  0.00  0.00    -0.287 OA
ENDBRANCH   1   4
BRANCH   1   6
ATOM      6  CB  LEU A   1      31.792 -55.651 -49.374  0.00  0.00    +0.025 C 
BRANCH   6   7
ATOM      7  CG  LEU A   1      30.766 -55.260 -50.437  0.00  0.00    +0.002 C 
ATOM      8  CD2 LEU A   1      30.191 -53.888 -50.127  0.00  0.00    +0.000 C 
ATOM      9  CD1 LEU A   1      31.387 -55.293 -51.825  0.00  0.00    +0.000 C 
ENDBRANCH   6   7
ENDBRANCH   1   6
TORSDOF 4
REMARK  Name = ../refined-set-2016/4p6w/4p6w_pocket.pdb
REMARK  262 active torsions:
REMARK  status: ('A' for Active; 'I' for Inactive)
REMARK    1  A    between atoms: _1  and  _3
REMARK    2  A    between atoms: _3  and  _4
REMARK    3  A    between atoms: _3  and  _6
REMARK    4  A    between atoms: _6  and  _7
REMARK    5  A    between atoms: _10  and  _12
REMARK    6  A    between atoms: _12  and  _13
REMARK    7  A    between atoms: _12  and  _15
REMARK    8  A    between atoms: _15  and  _16
REMARK    9  A    between atoms: _19  and  _21
REMARK   10  A    between atoms: _21  and  _22
REMARK   11  A    between atoms: _21  and  _24
REMARK   12  A    between atoms: _24  and  _25
REMARK   13  A    between atoms: _35  and  _37
REMARK   14  A    between atoms: _37  and  _38
REMARK   15  A    between atoms: _37  and  _40
REMARK   16  A    between atoms: _40  and  _41
REMARK   17  A    between atoms: _44  and  _46
REMARK   18  A    between atoms: _46  and  _47
REMARK   19  A    between atoms: _46  and  _49
REMARK   20  A    between atoms: _49  and  _50
REMARK   21  A    between atoms: _50  and  _51
REMARK   22  A    between atoms: _53  and  _55
REMARK   23  A    between atoms: _55  and  _56
REMARK   24  A    between atoms: _55  and  _58
REMARK   25  A    between atoms: _58  and  _59
REMARK   26  A    between atoms: _62  and  _64
REMARK   27  A    between atoms: _64  and  _65
REMARK   28  A    between atoms: _64  and  _67
REMARK   29  A    between atoms: _67  and  _68
REMARK   30  A    between atoms: _71  and  _73
REMARK   31  A    between atoms: _73  and  _74
REMARK   32  A    between atoms: _73  and  _76
REMARK   33  A    between atoms: _76  and  _77
REMARK   34  A    between atoms: _80  and  _82
REMARK   35  A    between atoms: _82  and  _83
REMARK   36  A    between atoms: _82  and  _85
REMARK   37  A    between atoms: _85  and  _86
REMARK   38  A    between atoms: _91  and  _93
REMARK   39  A    between atoms: _93  and  _94
REMARK   40  A    between atoms: _93  and  _96
REMARK   41  A    between atoms: _96  and  _97
REMARK   42  A    between atoms: _97  and  _98
REMARK   43  A    between atoms: _100  and  _102
REMARK   44  A    between atoms: _102  and  _103
REMARK   45  A    between atoms: _102  and  _105
REMARK   46  A    between atoms: _105  and  _106
REMARK   47  A    between atoms: _109  and  _111
REMARK   48  A    between atoms: _111  and  _112
REMARK   49  A    between atoms: _114  and  _116
REMARK   50  A    between atoms: _116  and  _117
REMARK   51  A    between atoms: _119  and  _121
REMARK   52  A    between atoms: _121  and  _122
REMARK   53  A    between atoms: _121  and  _124
REMARK   54  A    between atoms: _124  and  _125
REMARK   55  A    between atoms: _125  and  _126
REMARK   56  A    between atoms: _126  and  _127
REMARK   57  A    between atoms: _136  and  _138
REMARK   58  A    between atoms: _138  and  _139
REMARK   59  A    between atoms: _138  and  _141
REMARK   60  A    between atoms: _141  and  _142
REMARK   61  A    between atoms: _142  and  _143
REMARK   62  A    between atoms: _148  and  _150
REMARK   63  A    between atoms: _150  and  _151
REMARK   64  A    between atoms: _150  and  _153
REMARK   65  A    between atoms: _156  and  _158
REMARK   66  A    between atoms: _158  and  _159
REMARK   67  A    between atoms: _158  and  _161
REMARK   68  A    between atoms: _161  and  _162
REMARK   69  A    between atoms: _172  and  _174
REMARK   70  A    between atoms: _174  and  _175
REMARK   71  A    between atoms: _174  and  _177
REMARK   72  A    between atoms: _177  and  _178
REMARK   73  A    between atoms: _178  and  _179
REMARK   74  A    between atoms: _181  and  _183
REMARK   75  A    between atoms: _183  and  _184
REMARK   76  A    between atoms: _187  and  _189
REMARK   77  A    between atoms: _189  and  _190
REMARK   78  A    between atoms: _189  and  _192
REMARK   79  A    between atoms: _192  and  _193
REMARK   80  A    between atoms: _196  and  _198
REMARK   81  A    between atoms: _198  and  _199
REMARK   82  A    between atoms: _198  and  _201
REMARK   83  A    between atoms: _201  and  _202
REMARK   84  A    between atoms: _202  and  _203
REMARK   85  A    between atoms: _205  and  _207
REMARK   86  A    between atoms: _207  and  _208
REMARK   87  A    between atoms: _211  and  _213
REMARK   88  A    between atoms: _213  and  _214
REMARK   89  A    between atoms: _213  and  _216
REMARK   90  A    between atoms: _216  and  _217
REMARK   91  A    between atoms: _223  and  _225
REMARK   92  A    between atoms: _225  and  _226
REMARK   93  A    between atoms: _229  and  _231
REMARK   94  A    between atoms: _231  and  _232
REMARK   95  A    between atoms: _231  and  _234
REMARK   96  A    between atoms: _234  and  _235
REMARK   97  A    between atoms: _238  and  _240
REMARK   98  A    between atoms: _240  and  _241
REMARK   99  A    between atoms: _243  and  _245
REMARK  100  A    between atoms: _245  and  _246
REMARK  101  A    between atoms: _245  and  _248
REMARK  102  A    between atoms: _248  and  _249
REMARK  103  A    between atoms: _249  and  _250
REMARK  104  A    between atoms: _250  and  _251
REMARK  105  A    between atoms: _260  and  _262
REMARK  106  A    between atoms: _262  and  _263
REMARK  107  A    between atoms: _262  and  _265
REMARK  108  A    between atoms: _265  and  _266
REMARK  109  A    between atoms: _268  and  _270
REMARK  110  A    between atoms: _270  and  _271
REMARK  111  A    between atoms: _270  and  _273
REMARK  112  A    between atoms: _273  and  _274
REMARK  113  A    between atoms: _277  and  _279
REMARK  114  A    between atoms: _279  and  _280
REMARK  115  A    between atoms: _279  and  _282
REMARK  116  A    between atoms: _282  and  _283
REMARK  117  A    between atoms: _288  and  _289
REMARK  118  A    between atoms: _291  and  _293
REMARK  119  A    between atoms: _293  and  _294
REMARK  120  A    between atoms: _293  and  _296
REMARK  121  A    between atoms: _296  and  _297
REMARK  122  A    between atoms: _303  and  _305
REMARK  123  A    between atoms: _305  and  _306
REMARK  124  A    between atoms: _309  and  _311
REMARK  125  A    between atoms: _311  and  _312
REMARK  126  A    between atoms: _311  and  _314
REMARK  127  A    between atoms: _314  and  _315
REMARK  128  A    between atoms: _318  and  _320
REMARK  129  A    between atoms: _320  and  _321
REMARK  130  A    between atoms: _320  and  _323
REMARK  131  A    between atoms: _323  and  _324
REMARK  132  A    between atoms: _327  and  _329
REMARK  133  A    between atoms: _329  and  _330
REMARK  134  A    between atoms: _329  and  _332
REMARK  135  A    between atoms: _332  and  _333
REMARK  136  A    between atoms: _333  and  _334
REMARK  137  A    between atoms: _334  and  _335
REMARK  138  A    between atoms: _344  and  _346
REMARK  139  A    between atoms: _346  and  _347
REMARK  140  A    between atoms: _346  and  _349
REMARK  141  A    between atoms: _349  and  _350
REMARK  142  A    between atoms: _350  and  _351
REMARK  143  A    between atoms: _353  and  _355
REMARK  144  A    between atoms: _355  and  _356
REMARK  145  A    between atoms: _355  and  _358
REMARK  146  A    between atoms: _358  and  _359
REMARK  147  A    between atoms: _363  and  _364
REMARK  148  A    between atoms: _369  and  _371
REMARK  149  A    between atoms: _371  and  _372
REMARK  150  A    between atoms: _371  and  _374
REMARK  151  A    between atoms: _376  and  _378
REMARK  152  A    between atoms: _378  and  _379
REMARK  153  A    between atoms: _378  and  _381
REMARK  154  A    between atoms: _381  and  _382
REMARK  155  A    between atoms: _382  and  _383
REMARK  156  A    between atoms: _385  and  _387
REMARK  157  A    between atoms: _387  and  _388
REMARK  158  A    between atoms: _387  and  _390
REMARK  159  A    between atoms: _390  and  _391
REMARK  160  A    between atoms: _396  and  _397
REMARK  161  A    between atoms: _399  and  _401
REMARK  162  A    between atoms: _401  and  _402
REMARK  163  A    between atoms: _401  and  _404
REMARK  164  A    between atoms: _404  and  _405
REMARK  165  A    between atoms: _408  and  _410
REMARK  166  A    between atoms: _410  and  _411
REMARK  167  A    between atoms: _410  and  _413
REMARK  168  A    between atoms: _413  and  _414
REMARK  169  A    between atoms: _414  and  _415
REMARK  170  A    between atoms: _420  and  _422
REMARK  171  A    between atoms: _422  and  _423
REMARK  172  A    between atoms: _422  and  _425
REMARK  173  A    between atoms: _427  and  _429
REMARK  174  A    between atoms: _429  and  _430
REMARK  175  A    between atoms: _429  and  _432
REMARK  176  A    between atoms: _432  and  _433
REMARK  177  A    between atoms: _433  and  _434
REMARK  178  A    between atoms: _434  and  _435
REMARK  179  A    between atoms: _435  and  _436
REMARK  180  A    between atoms: _440  and  _442
REMARK  181  A    between atoms: _442  and  _443
REMARK  182  A    between atoms: _442  and  _445
REMARK  183  A    between atoms: _445  and  _446
REMARK  184  A    between atoms: _451  and  _453
REMARK  185  A    between atoms: _453  and  _454
REMARK  186  A    between atoms: _453  and  _456
REMARK  187  A    between atoms: _456  and  _457
REMARK  188  A    between atoms: _457  and  _458
REMARK  189  A    between atoms: _460  and  _462
REMARK  190  A    between atoms: _462  and  _463
REMARK  191  A    between atoms: _462  and  _465
REMARK  192  A    between atoms: _468  and  _470
REMARK  193  A    between atoms: _470  and  _471
REMARK  194  A    between atoms: _470  and  _473
REMARK  195  A    between atoms: _476  and  _478
REMARK  196  A    between atoms: _478  and  _479
REMARK  197  A    between atoms: _478  and  _481
REMARK  198  A    between atoms: _481  and  _482
REMARK  199  A    between atoms: _487  and  _489
REMARK  200  A    between atoms: _489  and  _490
REMARK  201  A    between atoms: _489  and  _492
REMARK  202  A    between atoms: _492  and  _493
REMARK  203  A    between atoms: _496  and  _498
REMARK  204  A    between atoms: _498  and  _499
REMARK  205  A    between atoms: _498  and  _501
REMARK  206  A    between atoms: _501  and  _502
REMARK  207  A    between atoms: _505  and  _507
REMARK  208  A    between atoms: _507  and  _508
REMARK  209  A    between atoms: _507  and  _510
REMARK  210  A    between atoms: _510  and  _511
REMARK  211  A    between atoms: _516  and  _518
REMARK  212  A    between atoms: _518  and  _519
REMARK  213  A    between atoms: _518  and  _521
REMARK  214  A    between atoms: _521  and  _522
REMARK  215  A    between atoms: _527  and  _528
REMARK  216  A    between atoms: _530  and  _532
REMARK  217  A    between atoms: _532  and  _533
REMARK  218  A    between atoms: _532  and  _535
REMARK  219  A    between atoms: _537  and  _539
REMARK  220  A    between atoms: _539  and  _540
REMARK  221  A    between atoms: _539  and  _542
REMARK  222  A    between atoms: _542  and  _543
REMARK  223  A    between atoms: _549  and  _551
REMARK  224  A    between atoms: _551  and  _552
REMARK  225  A    between atoms: _551  and  _554
REMARK  226  A    between atoms: _554  and  _555
REMARK  227  A    between atoms: _555  and  _556
REMARK  228  A    between atoms: _561  and  _563
REMARK  229  A    between atoms: _563  and  _564
REMARK  230  A    between atoms: _563  and  _566
REMARK  231  A    between atoms: _566  and  _567
REMARK  232  A    between atoms: _570  and  _572
REMARK  233  A    between atoms: _572  and  _573
REMARK  234  A    between atoms: _572  and  _575
REMARK  235  A    between atoms: _575  and  _576
REMARK  236  A    between atoms: _582  and  _584
REMARK  237  A    between atoms: _584  and  _585
REMARK  238  A    between atoms: _584  and  _587
REMARK  239  A    between atoms: _587  and  _588
REMARK  240  A    between atoms: _588  and  _589
REMARK  241  A    between atoms: _591  and  _593
REMARK  242  A    between atoms: _593  and  _594
REMARK  243  A    between atoms: _593  and  _596
REMARK  244  A    between atoms: _596  and  _597
REMARK  245  A    between atoms: _600  and  _602
REMARK  246  A    between atoms: _602  and  _603
REMARK  247  A    between atoms: _602  and  _605
REMARK  248  A    between atoms: _605  and  _606
REMARK  249  A    between atoms: _606  and  _607
REMARK  250  A    between atoms: _610  and  _612
REMARK  251  A    between atoms: _612  and  _613
REMARK  252  A    between atoms: _612  and  _615
REMARK  253  A    between atoms: _615  and  _616
REMARK  254  A    between atoms: _623  and  _624
REMARK  255  A    between atoms: _629  and  _631
REMARK  256  A    between atoms: _631  and  _632
REMARK  257  A    between atoms: _631  and  _634
REMARK  258  A    between atoms: _634  and  _635
REMARK  259  A    between atoms: _638  and  _640
REMARK  260  A    between atoms: _640  and  _641
REMARK  261  A    between atoms: _640  and  _643
REMARK  262  A    between atoms: _643  and  _644
REMARK                            x       y       z     vdW  Elec       q    Type
REMARK                         _______ _______ _______ _____ _____    ______ ____
ROOT
ATOM      1  CA  TRP A   2      36.255 -47.980 -31.619  0.00  0.00    +0.141 C 
ENDROOT
BRANCH   1   3
ATOM      2  C   THR A   1      35.774 -50.292 -30.988  0.00  0.00    +0.241 C 
ATOM      3  N   TRP A   2      36.407 -49.146 -30.748  0.00  0.00    -0.298 N 
ATOM      4  H   TRP A   2      37.028 -49.077 -29.917  0.00  0.00    +0.150 HD
ATOM      5  O   THR A   1      35.048 -50.467 -31.967  0.00  0.00    -0.274 OA
BRANCH   2   6
ATOM      6  CA  THR A   1      36.017 -51.424 -29.989  0.00  0.00    +0.172 C 
BRANCH   6   7
ATOM      7  N   THR A   1      37.424 -51.495 -29.638  0.00  0.00    -0.236 NA
ATOM      8  H   THR A   1      37.718 -51.347 -28.651  0.00  0.00    +0.142 HD
ENDBRANCH   6   7
BRANCH   6   9
ATOM      9  CB  THR A   1      35.143 -51.228 -28.745  0.00  0.00    +0.135 C 
ATOM     10  CG2 THR A   1      33.693 -51.110 -29.137  0.00  0.00    +0.034 C 
BRANCH   9  11
ATOM     11  OG1 THR A   1      35.297 -52.356 -27.875  0.00  0.00    -0.383 OA
ATOM     12  HG1 THR A   1      34.733 -52.231 -27.071  0.00  0.00    +0.210 HD
ENDBRANCH   9  11
ENDBRANCH   6   9
ENDBRANCH   2   6
ENDBRANCH   1   3
BRANCH   1  13
ATOM     13  C   TRP A   2      36.653 -48.275 -33.058  0.00  0.00    +0.227 C 
ATOM     14  O   TRP A   2      35.941 -47.913 -33.995  0.00  0.00    -0.286 OA
ENDBRANCH   1  13
BRANCH   1  15
ATOM     15  CB  TRP A   2      37.085 -46.807 -31.098  0.00  0.00    +0.056 C 
BRANCH  15  16
ATOM     16  CG  TRP A   2      36.536 -46.181 -29.861  0.00  0.00    -0.002 A 
ATOM     17  CD1 TRP A   2      35.609 -46.713 -29.013  0.00  0.00    +0.068 A 
ATOM     18  NE1 TRP A   2      35.351 -45.839 -27.985  0.00  0.00    -0.352 N 
ATOM     19  HE1 TRP A   2      34.683 -46.003 -27.205  0.00  0.00    +0.166 HD
ATOM     20  CE2 TRP A   2      36.118 -44.716 -28.156  0.00  0.00    +0.056 A 
ATOM     21  CZ2 TRP A   2      36.201 -43.559 -27.384  0.00  0.00    +0.017 A 
ATOM     22  CH2 TRP A   2      37.060 -42.581 -27.806  0.00  0.00    +0.001 A 
ATOM     23  CZ3 TRP A   2      37.830 -42.733 -28.967  0.00  0.00    +0.000 A 
ATOM     24  CE3 TRP A   2      37.744 -43.877 -29.738  0.00  0.00    +0.001 A 
ATOM     25  CD2 TRP A   2      36.874 -44.895 -29.332  0.00  0.00    +0.013 A 
ENDBRANCH  15  16
ENDBRANCH   1  15
TORSDOF 8
REMARK  Name = ../refined-set-2016/4p6w/4p6w_pocket.pdb
REMARK  262 active torsions:
REMARK  status: ('A' for Active; 'I' for Inactive)
REMARK    1  A    between atoms: _1  and  _3
REMARK    2  A    between atoms: _3  and  _4
REMARK    3  A    between atoms: _3  and  _6
REMARK    4  A    between atoms: _6  and  _7
REMARK    5  A    between atoms: _10  and  _12
REMARK    6  A    between atoms: _12  and  _13
REMARK    7  A    between atoms: _12  and  _15
REMARK    8  A    between atoms: _15  and  _16
REMARK    9  A    between atoms: _19  and  _21
REMARK   10  A    between atoms: _21  and  _22
REMARK   11  A    between atoms: _21  and  _24
REMARK   12  A    between atoms: _24  and  _25
REMARK   13  A    between atoms: _35  and  _37
REMARK   14  A    between atoms: _37  and  _38
REMARK   15  A    between atoms: _37  and  _40
REMARK   16  A    between atoms: _40  and  _41
REMARK   17  A    between atoms: _44  and  _46
REMARK   18  A    between atoms: _46  and  _47
REMARK   19  A    between atoms: _46  and  _49
REMARK   20  A    between atoms: _49  and  _50
REMARK   21  A    between atoms: _50  and  _51
REMARK   22  A    between atoms: _53  and  _55
REMARK   23  A    between atoms: _55  and  _56
REMARK   24  A    between atoms: _55  and  _58
REMARK   25  A    between atoms: _58  and  _59
REMARK   26  A    between atoms: _62  and  _64
REMARK   27  A    between atoms: _64  and  _65
REMARK   28  A    between atoms: _64  and  _67
REMARK   29  A    between atoms: _67  and  _68
REMARK   30  A    between atoms: _71  and  _73
REMARK   31  A    between atoms: _73  and  _74
REMARK   32  A    between atoms: _73  and  _76
REMARK   33  A    between atoms: _76  and  _77
REMARK   34  A    between atoms: _80  and  _82
REMARK   35  A    between atoms: _82  and  _83
REMARK   36  A    between atoms: _82  and  _85
REMARK   37  A    between atoms: _85  and  _86
REMARK   38  A    between atoms: _91  and  _93
REMARK   39  A    between atoms: _93  and  _94
REMARK   40  A    between atoms: _93  and  _96
REMARK   41  A    between atoms: _96  and  _97
REMARK   42  A    between atoms: _97  and  _98
REMARK   43  A    between atoms: _100  and  _102
REMARK   44  A    between atoms: _102  and  _103
REMARK   45  A    between atoms: _102  and  _105
REMARK   46  A    between atoms: _105  and  _106
REMARK   47  A    between atoms: _109  and  _111
REMARK   48  A    between atoms: _111  and  _112
REMARK   49  A    between atoms: _114  and  _116
REMARK   50  A    between atoms: _116  and  _117
REMARK   51  A    between atoms: _119  and  _121
REMARK   52  A    between atoms: _121  and  _122
REMARK   53  A    between atoms: _121  and  _124
REMARK   54  A    between atoms: _124  and  _125
REMARK   55  A    between atoms: _125  and  _126
REMARK   56  A    between atoms: _126  and  _127
REMARK   57  A    between atoms: _136  and  _138
REMARK   58  A    between atoms: _138  and  _139
REMARK   59  A    between atoms: _138  and  _141
REMARK   60  A    between atoms: _141  and  _142
REMARK   61  A    between atoms: _142  and  _143
REMARK   62  A    between atoms: _148  and  _150
REMARK   63  A    between atoms: _150  and  _151
REMARK   64  A    between atoms: _150  and  _153
REMARK   65  A    between atoms: _156  and  _158
REMARK   66  A    between atoms: _158  and  _159
REMARK   67  A    between atoms: _158  and  _161
REMARK   68  A    between atoms: _161  and  _162
REMARK   69  A    between atoms: _172  and  _174
REMARK   70  A    between atoms: _174  and  _175
REMARK   71  A    between atoms: _174  and  _177
REMARK   72  A    between atoms: _177  and  _178
REMARK   73  A    between atoms: _178  and  _179
REMARK   74  A    between atoms: _181  and  _183
REMARK   75  A    between atoms: _183  and  _184
REMARK   76  A    between atoms: _187  and  _189
REMARK   77  A    between atoms: _189  and  _190
REMARK   78  A    between atoms: _189  and  _192
REMARK   79  A    between atoms: _192  and  _193
REMARK   80  A    between atoms: _196  and  _198
REMARK   81  A    between atoms: _198  and  _199
REMARK   82  A    between atoms: _198  and  _201
REMARK   83  A    between atoms: _201  and  _202
REMARK   84  A    between atoms: _202  and  _203
REMARK   85  A    between atoms: _205  and  _207
REMARK   86  A    between atoms: _207  and  _208
REMARK   87  A    between atoms: _211  and  _213
REMARK   88  A    between atoms: _213  and  _214
REMARK   89  A    between atoms: _213  and  _216
REMARK   90  A    between atoms: _216  and  _217
REMARK   91  A    between atoms: _223  and  _225
REMARK   92  A    between atoms: _225  and  _226
REMARK   93  A    between atoms: _229  and  _231
REMARK   94  A    between atoms: _231  and  _232
REMARK   95  A    between atoms: _231  and  _234
REMARK   96  A    between atoms: _234  and  _235
REMARK   97  A    between atoms: _238  and  _240
REMARK   98  A    between atoms: _240  and  _241
REMARK   99  A    between atoms: _243  and  _245
REMARK  100  A    between atoms: _245  and  _246
REMARK  101  A    between atoms: _245  and  _248
REMARK  102  A    between atoms: _248  and  _249
REMARK  103  A    between atoms: _249  and  _250
REMARK  104  A    between atoms: _250  and  _251
REMARK  105  A    between atoms: _260  and  _262
REMARK  106  A    between atoms: _262  and  _263
REMARK  107  A    between atoms: _262  and  _265
REMARK  108  A    between atoms: _265  and  _266
REMARK  109  A    between atoms: _268  and  _270
REMARK  110  A    between atoms: _270  and  _271
REMARK  111  A    between atoms: _270  and  _273
REMARK  112  A    between atoms: _273  and  _274
REMARK  113  A    between atoms: _277  and  _279
REMARK  114  A    between atoms: _279  and  _280
REMARK  115  A    between atoms: _279  and  _282
REMARK  116  A    between atoms: _282  and  _283
REMARK  117  A    between atoms: _288  and  _289
REMARK  118  A    between atoms: _291  and  _293
REMARK  119  A    between atoms: _293  and  _294
REMARK  120  A    between atoms: _293  and  _296
REMARK  121  A    between atoms: _296  and  _297
REMARK  122  A    between atoms: _303  and  _305
REMARK  123  A    between atoms: _305  and  _306
REMARK  124  A    between atoms: _309  and  _311
REMARK  125  A    between atoms: _311  and  _312
REMARK  126  A    between atoms: _311  and  _314
REMARK  127  A    between atoms: _314  and  _315
REMARK  128  A    between atoms: _318  and  _320
REMARK  129  A    between atoms: _320  and  _321
REMARK  130  A    between atoms: _320  and  _323
REMARK  131  A    between atoms: _323  and  _324
REMARK  132  A    between atoms: _327  and  _329
REMARK  133  A    between atoms: _329  and  _330
REMARK  134  A    between atoms: _329  and  _332
REMARK  135  A    between atoms: _332  and  _333
REMARK  136  A    between atoms: _333  and  _334
REMARK  137  A    between atoms: _334  and  _335
REMARK  138  A    between atoms: _344  and  _346
REMARK  139  A    between atoms: _346  and  _347
REMARK  140  A    between atoms: _346  and  _349
REMARK  141  A    between atoms: _349  and  _350
REMARK  142  A    between atoms: _350  and  _351
REMARK  143  A    between atoms: _353  and  _355
REMARK  144  A    between atoms: _355  and  _356
REMARK  145  A    between atoms: _355  and  _358
REMARK  146  A    between atoms: _358  and  _359
REMARK  147  A    between atoms: _363  and  _364
REMARK  148  A    between atoms: _369  and  _371
REMARK  149  A    between atoms: _371  and  _372
REMARK  150  A    between atoms: _371  and  _374
REMARK  151  A    between atoms: _376  and  _378
REMARK  152  A    between atoms: _378  and  _379
REMARK  153  A    between atoms: _378  and  _381
REMARK  154  A    between atoms: _381  and  _382
REMARK  155  A    between atoms: _382  and  _383
REMARK  156  A    between atoms: _385  and  _387
REMARK  157  A    between atoms: _387  and  _388
REMARK  158  A    between atoms: _387  and  _390
REMARK  159  A    between atoms: _390  and  _391
REMARK  160  A    between atoms: _396  and  _397
REMARK  161  A    between atoms: _399  and  _401
REMARK  162  A    between atoms: _401  and  _402
REMARK  163  A    between atoms: _401  and  _404
REMARK  164  A    between atoms: _404  and  _405
REMARK  165  A    between atoms: _408  and  _410
REMARK  166  A    between atoms: _410  and  _411
REMARK  167  A    between atoms: _410  and  _413
REMARK  168  A    between atoms: _413  and  _414
REMARK  169  A    between atoms: _414  and  _415
REMARK  170  A    between atoms: _420  and  _422
REMARK  171  A    between atoms: _422  and  _423
REMARK  172  A    between atoms: _422  and  _425
REMARK  173  A    between atoms: _427  and  _429
REMARK  174  A    between atoms: _429  and  _430
REMARK  175  A    between atoms: _429  and  _432
REMARK  176  A    between atoms: _432  and  _433
REMARK  177  A    between atoms: _433  and  _434
REMARK  178  A    between atoms: _434  and  _435
REMARK  179  A    between atoms: _435  and  _436
REMARK  180  A    between atoms: _440  and  _442
REMARK  181  A    between atoms: _442  and  _443
REMARK  182  A    between atoms: _442  and  _445
REMARK  183  A    between atoms: _445  and  _446
REMARK  184  A    between atoms: _451  and  _453
REMARK  185  A    between atoms: _453  and  _454
REMARK  186  A    between atoms: _453  and  _456
REMARK  187  A    between atoms: _456  and  _457
REMARK  188  A    between atoms: _457  and  _458
REMARK  189  A    between atoms: _460  and  _462
REMARK  190  A    between atoms: _462  and  _463
REMARK  191  A    between atoms: _462  and  _465
REMARK  192  A    between atoms: _468  and  _470
REMARK  193  A    between atoms: _470  and  _471
REMARK  194  A    between atoms: _470  and  _473
REMARK  195  A    between atoms: _476  and  _478
REMARK  196  A    between atoms: _478  and  _479
REMARK  197  A    between atoms: _478  and  _481
REMARK  198  A    between atoms: _481  and  _482
REMARK  199  A    between atoms: _487  and  _489
REMARK  200  A    between atoms: _489  and  _490
REMARK  201  A    between atoms: _489  and  _492
REMARK  202  A    between atoms: _492  and  _493
REMARK  203  A    between atoms: _496  and  _498
REMARK  204  A    between atoms: _498  and  _499
REMARK  205  A    between atoms: _498  and  _501
REMARK  206  A    between atoms: _501  and  _502
REMARK  207  A    between atoms: _505  and  _507
REMARK  208  A    between atoms: _507  and  _508
REMARK  209  A    between atoms: _507  and  _510
REMARK  210  A    between atoms: _510  and  _511
REMARK  211  A    between atoms: _516  and  _518
REMARK  212  A    between atoms: _518  and  _519
REMARK  213  A    between atoms: _518  and  _521
REMARK  214  A    between atoms: _521  and  _522
REMARK  215  A    between atoms: _527  and  _528
REMARK  216  A    between atoms: _530  and  _532
REMARK  217  A    between atoms: _532  and  _533
REMARK  218  A    between atoms: _532  and  _535
REMARK  219  A    between atoms: _537  and  _539
REMARK  220  A    between atoms: _539  and  _540
REMARK  221  A    between atoms: _539  and  _542
REMARK  222  A    between atoms: _542  and  _543
REMARK  223  A    between atoms: _549  and  _551
REMARK  224  A    between atoms: _551  and  _552
REMARK  225  A    between atoms: _551  and  _554
REMARK  226  A    between atoms: _554  and  _555
REMARK  227  A    between atoms: _555  and  _556
REMARK  228  A    between atoms: _561  and  _563
REMARK  229  A    between atoms: _563  and  _564
REMARK  230  A    between atoms: _563  and  _566
REMARK  231  A    between atoms: _566  and  _567
REMARK  232  A    between atoms: _570  and  _572
REMARK  233  A    between atoms: _572  and  _573
REMARK  234  A    between atoms: _572  and  _575
REMARK  235  A    between atoms: _575  and  _576
REMARK  236  A    between atoms: _582  and  _584
REMARK  237  A    between atoms: _584  and  _585
REMARK  238  A    between atoms: _584  and  _587
REMARK  239  A    between atoms: _587  and  _588
REMARK  240  A    between atoms: _588  and  _589
REMARK  241  A    between atoms: _591  and  _593
REMARK  242  A    between atoms: _593  and  _594
REMARK  243  A    between atoms: _593  and  _596
REMARK  244  A    between atoms: _596  and  _597
REMARK  245  A    between atoms: _600  and  _602
REMARK  246  A    between atoms: _602  and  _603
REMARK  247  A    between atoms: _602  and  _605
REMARK  248  A    between atoms: _605  and  _606
REMARK  249  A    between atoms: _606  and  _607
REMARK  250  A    between atoms: _610  and  _612
REMARK  251  A    between atoms: _612  and  _613
REMARK  252  A    between atoms: _612  and  _615
REMARK  253  A    between atoms: _615  and  _616
REMARK  254  A    between atoms: _623  and  _624
REMARK  255  A    between atoms: _629  and  _631
REMARK  256  A    between atoms: _631  and  _632
REMARK  257  A    between atoms: _631  and  _634
REMARK  258  A    between atoms: _634  and  _635
REMARK  259  A    between atoms: _638  and  _640
REMARK  260  A    between atoms: _640  and  _641
REMARK  261  A    between atoms: _640  and  _643
REMARK  262  A    between atoms: _643  and  _644
REMARK                            x       y       z     vdW  Elec       q    Type
REMARK                         _______ _______ _______ _____ _____    ______ ____
ROOT
ATOM      1  CA  MET A   7      32.169 -47.793 -43.321  0.00  0.00    +0.149 C 
ENDROOT
BRANCH   1   3
ATOM      2  C   ASN A   6      30.453 -48.162 -41.642  0.00  0.00    +0.241 C 
ATOM      3  N   MET A   7      31.742 -48.087 -41.958  0.00  0.00    -0.297 N 
ATOM      4  H   MET A   7      32.459 -48.241 -41.220  0.00  0.00    +0.150 HD
ATOM      5  O   ASN A   6      29.554 -47.971 -42.458  0.00  0.00    -0.273 OA
BRANCH   2   6
ATOM      6  CA  ASN A   6      30.127 -48.501 -40.193  0.00  0.00    +0.158 C 
BRANCH   6   8
ATOM      7  C   LEU A   5      30.970 -50.782 -40.241  0.00  0.00    +0.241 C 
ATOM      8  N   ASN A   6      30.974 -49.575 -39.684  0.00  0.00    -0.297 N 
ATOM      9  H   ASN A   6      31.593 -49.392 -38.869  0.00  0.00    +0.150 HD
ATOM     10  O   LEU A   5      30.211 -51.091 -41.157  0.00  0.00    -0.273 OA
BRANCH   7  11
ATOM     11  CA  LEU A   5      31.971 -51.796 -39.694  0.00  0.00    +0.149 C 
BRANCH  11  13
ATOM     12  C   THR A   4      34.064 -50.724 -40.294  0.00  0.00    +0.243 C 
ATOM     13  N   LEU A   5      33.235 -51.153 -39.350  0.00  0.00    -0.297 N 
ATOM     14  H   LEU A   5      33.490 -51.029 -38.350  0.00  0.00    +0.150 HD
ATOM     15  O   THR A   4      33.818 -50.833 -41.496  0.00  0.00    -0.273 OA
BRANCH  12  16
ATOM     16  CA  THR A   4      35.356 -50.059 -39.817  0.00  0.00    +0.176 C 
BRANCH  16  18
ATOM     17  C   THR A   3      34.299 -48.207 -38.643  0.00  0.00    +0.243 C 
ATOM     18  N   THR A   4      35.127 -49.246 -38.630  0.00  0.00    -0.295 N 
ATOM     19  H   THR A   4      35.625 -49.485 -37.749  0.00  0.00    +0.150 HD
ATOM     20  O   THR A   3      33.658 -47.871 -39.639  0.00  0.00    -0.273 OA
BRANCH  17  21
ATOM     21  CA  THR A   3      34.158 -47.442 -37.332  0.00  0.00    +0.176 C 
BRANCH  21  23
ATOM     22  C   MET A   2      32.906 -49.170 -36.177  0.00  0.00    +0.241 C 
ATOM     23  N   THR A   3      33.961 -48.362 -36.217  0.00  0.00    -0.295 N 
ATOM     24  H   THR A   3      34.655 -48.386 -35.443  0.00  0.00    +0.150 HD
ATOM     25  O   MET A   2      32.032 -49.163 -37.044  0.00  0.00    -0.273 OA
BRANCH  22  26
ATOM     26  CA  MET A   2      32.818 -50.128 -34.992  0.00  0.00    +0.149 C 
BRANCH  26  28
ATOM     27  C   ILE A   1      34.690 -51.565 -35.598  0.00  0.00    +0.238 C 
ATOM     28  N   MET A   2      34.096 -50.775 -34.708  0.00  0.00    -0.297 N 
ATOM     29  H   MET A   2      34.553 -50.614 -33.788  0.00  0.00    +0.150 HD
ATOM     30  O   ILE A   1      34.221 -51.783 -36.715  0.00  0.00    -0.274 OA
BRANCH  27  31
ATOM     31  CA  ILE A   1      36.018 -52.194 -35.183  0.00  0.00    +0.145 C 
BRANCH  31  32
ATOM     32  N   ILE A   1      36.916 -51.211 -34.593  0.00  0.00    -0.238 NA
ATOM     33  H   ILE A   1      37.198 -51.314 -33.597  0.00  0.00    +0.142 HD
ENDBRANCH  31  32
BRANCH  31  34
ATOM     34  CB  ILE A   1      35.762 -53.359 -34.211  0.00  0.00    +0.025 C 
ATOM     35  CG2 ILE A   1      34.559 -54.185 -34.656  0.00  0.00    +0.002 C 
BRANCH  34  36
ATOM     36  CG1 ILE A   1      37.009 -54.237 -34.129  0.00  0.00    +0.002 C 
ATOM     37  CD1 ILE A   1      36.904 -55.359 -33.137  0.00  0.00    +0.000 C 
ENDBRANCH  34  36
ENDBRANCH  31  34
ENDBRANCH  27  31
ENDBRANCH  26  28
BRANCH  26  38
ATOM     38  CB  MET A   2      32.309 -49.387 -33.756  0.00  0.00    +0.041 C 
BRANCH  38  39
ATOM     39  CG  MET A   2      31.868 -50.310 -32.629  0.00  0.00    +0.060 C 
BRANCH  39  40
ATOM     40  SD  MET A   2      31.111 -49.428 -31.255  0.00  0.00    -0.139 S 
ATOM     41  CE  MET A   2      30.454 -50.786 -30.287  0.00  0.00    +0.069 C 
ENDBRANCH  39  40
ENDBRANCH  38  39
ENDBRANCH  26  38
ENDBRANCH  22  26
ENDBRANCH  21  23
BRANCH  21  42
ATOM     42  CB  THR A   3      35.397 -46.550 -37.125  0.00  0.00    +0.137 C 
ATOM     43  CG2 THR A   3      35.732 -45.795 -38.403  0.00  0.00    +0.034 C 
BRANCH  42  44
ATOM     44  OG1 THR A   3      35.131 -45.606 -36.083  0.00  0.00    -0.382 OA
ATOM     45  HG1 THR A   3      35.926 -45.032 -35.949  0.00  0.00    +0.210 HD
ENDBRANCH  42  44
ENDBRANCH  21  42
ENDBRANCH  17  21
ENDBRANCH  16  18
BRANCH  16  46
ATOM     46  CB  THR A   4      36.426 -51.139 -39.558  0.00  0.00    +0.137 C 
ATOM     47  CG2 THR A   4      36.659 -51.979 -40.800  0.00  0.00    +0.034 C 
BRANCH  46  48
ATOM     48  OG1 THR A   4      37.658 -50.511 -39.180  0.00  0.00    -0.382 OA
ATOM     49  HG1 THR A   4      37.518 -49.981 -38.356  0.00  0.00    +0.210 HD
ENDBRANCH  46  48
ENDBRANCH  16  46
ENDBRANCH  12  16
ENDBRANCH  11  13
BRANCH  11  50
ATOM     50  CB  LEU A   5      31.392 -52.525 -38.480  0.00  0.00    +0.029 C 
BRANCH  50  51
ATOM     51  CG  LEU A   5      32.131 -53.816 -38.121  0.00  0.00    +0.002 C 
ATOM     52  CD2 LEU A   5      31.592 -54.431 -36.839  0.00  0.00    +0.000 C 
ATOM     53  CD1 LEU A   5      32.046 -54.803 -39.272  0.00  0.00    +0.000 C 
ENDBRANCH  50  51
ENDBRANCH  11  50
ENDBRANCH   7  11
ENDBRANCH   6   8
BRANCH   6  54
ATOM     54  CB  ASN A   6      30.263 -47.244 -39.333  0.00  0.00    +0.114 C 
BRANCH  54  55
ATOM     55  CG  ASN A   6      29.389 -47.282 -38.100  0.00  0.00    +0.222 C 
ATOM     56  ND2 ASN A   6      29.606 -46.340 -37.192  0.00  0.00    -0.329 N 
ATOM     57 HD21 ASN A   6      29.028 -46.308 -36.328  0.00  0.00    +0.145 HD
ATOM     58 HD22 ASN A   6      30.354 -45.633 -37.344  0.00  0.00    +0.145 HD
ATOM     59  OD1 ASN A   6      28.519 -48.140 -37.969  0.00  0.00    -0.275 OA
ENDBRANCH  54  55
ENDBRANCH   6  54
ENDBRANCH   2   6
ENDBRANCH   1   3
BRANCH   1  60
ATOM     60  C   MET A   7      31.791 -48.941 -44.250  0.00  0.00    +0.241 C 
ATOM     61  N   LEU A   8      31.972 -50.171 -43.776  0.00  0.00    -0.297 N 
ATOM     62  H   LEU A   8      32.417 -50.296 -42.845  0.00  0.00    +0.150 HD
ATOM     63  O   MET A   7      31.339 -48.716 -45.371  0.00  0.00    -0.273 OA
BRANCH  61  64
ATOM     64  CA  LEU A   8      31.560 -51.348 -44.533  0.00  0.00    +0.149 C 
BRANCH  64  65
ATOM     65  C   LEU A   8      30.052 -51.318 -44.762  0.00  0.00    +0.241 C 
ATOM     66  N   GLY A   9      29.312 -50.953 -43.720  0.00  0.00    -0.295 N 
ATOM     67  H   GLY A   9      29.787 -50.720 -42.825  0.00  0.00    +0.150 HD
ATOM     68  O   LEU A   8      29.576 -51.605 -45.860  0.00  0.00    -0.273 OA
BRANCH  66  69
ATOM     69  CA  GLY A   9      27.864 -50.868 -43.787  0.00  0.00    +0.176 C 
BRANCH  69  70
ATOM     70  C   GLY A   9      27.394 -49.883 -44.834  0.00  0.00    +0.243 C 
ATOM     71  N   GLY A  10      28.038 -48.720 -44.878  0.00  0.00    -0.295 N 
ATOM     72  H   GLY A  10      28.786 -48.529 -44.181  0.00  0.00    +0.150 HD
ATOM     73  O   GLY A   9      26.469 -50.170 -45.591  0.00  0.00    -0.273 OA
BRANCH  71  74
ATOM     74  CA  GLY A  10      27.726 -47.709 -45.873  0.00  0.00    +0.176 C 
BRANCH  74  75
ATOM     75  C   GLY A  10      27.814 -48.257 -47.286  0.00  0.00    +0.243 C 
ATOM     76  N   ARG A  11      28.865 -49.022 -47.557  0.00  0.00    -0.297 N 
ATOM     77  H   ARG A  11      29.558 -49.212 -46.805  0.00  0.00    +0.150 HD
ATOM     78  O   GLY A  10      26.939 -48.011 -48.113  0.00  0.00    -0.273 OA
BRANCH  76  79
ATOM     79  CA  ARG A  11      29.076 -49.603 -48.877  0.00  0.00    +0.149 C 
BRANCH  79  80
ATOM     80  C   ARG A  11      28.102 -50.747 -49.164  0.00  0.00    +0.241 C 
ATOM     81  N   GLN A  12      27.746 -51.503 -48.131  0.00  0.00    -0.297 N 
ATOM     82  H   GLN A  12      28.167 -51.328 -47.196  0.00  0.00    +0.150 HD
ATOM     83  O   ARG A  11      27.682 -50.942 -50.305  0.00  0.00    -0.273 OA
BRANCH  81  84
ATOM     84  CA  GLN A  12      26.771 -52.576 -48.294  0.00  0.00    +0.149 C 
BRANCH  84  85
ATOM     85  C   GLN A  12      25.395 -52.006 -48.623  0.00  0.00    +0.241 C 
ATOM     86  N   VAL A  13      25.068 -50.878 -48.002  0.00  0.00    -0.298 N 
ATOM     87  H   VAL A  13      25.743 -50.453 -47.334  0.00  0.00    +0.150 HD
ATOM     88  O   GLN A  12      24.648 -52.577 -49.420  0.00  0.00    -0.273 OA
BRANCH  86  89
ATOM     89  CA  VAL A  13      23.788 -50.220 -48.232  0.00  0.00    +0.137 C 
BRANCH  89  90
ATOM     90  CB  VAL A  13      23.531 -49.113 -47.188  0.00  0.00    +0.026 C 
ATOM     91  CG2 VAL A  13      23.299 -49.732 -45.815  0.00  0.00    +0.002 C 
ATOM     92  CG1 VAL A  13      22.349 -48.249 -47.590  0.00  0.00    +0.002 C 
ENDBRANCH  89  90
BRANCH  89  93
ATOM     93  C   VAL A  13      23.731 -49.642 -49.646  0.00  0.00    +0.227 C 
ATOM     94  O   VAL A  13      22.698 -49.711 -50.308  0.00  0.00    -0.286 OA
ENDBRANCH  89  93
ENDBRANCH  86  89
ENDBRANCH  84  85
BRANCH  84  95
ATOM     95  CB  GLN A  12      26.695 -53.435 -47.034  0.00  0.00    +0.039 C 
BRANCH  95  96
ATOM     96  CG  GLN A  12      27.907 -54.315 -46.794  0.00  0.00    +0.087 C 
BRANCH  96  97
ATOM     97  CD  GLN A  12      27.794 -55.093 -45.493  0.00  0.00    +0.219 C 
ATOM     98  OE1 GLN A  12      26.887 -54.855 -44.694  0.00  0.00    -0.275 OA
ATOM     99  NE2 GLN A  12      28.714 -56.024 -45.275  0.00  0.00    -0.329 N 
ATOM    100 HE21 GLN A  12      28.687 -56.587 -44.401  0.00  0.00    +0.145 HD
ATOM    101 HE22 GLN A  12      29.462 -56.191 -45.978  0.00  0.00    +0.145 HD
ENDBRANCH  96  97
ENDBRANCH  95  96
ENDBRANCH  84  95
ENDBRANCH  81  84
ENDBRANCH  79  80
BRANCH  79 102
ATOM    102  CB  ARG A  11      30.520 -50.088 -49.011  0.00  0.00    +0.033 C 
BRANCH 102 103
ATOM    103  CG  ARG A  11      31.544 -48.960 -49.006  0.00  0.00    +0.045 C 
BRANCH 103 104
ATOM    104  CD  ARG A  11      32.925 -49.471 -48.641  0.00  0.00    +0.174 C 
BRANCH 104 105
ATOM    105  NE  ARG A  11      33.314 -50.618 -49.450  0.00  0.00    -0.265 N 
ATOM    106  CZ  ARG A  11      33.961 -51.678 -48.978  0.00  0.00    +0.342 C 
ATOM    107  NH2 ARG A  11      34.294 -51.737 -47.694  0.00  0.00    -0.292 N 
ATOM    108 HH21 ARG A  11      34.048 -50.953 -47.057  0.00  0.00    +0.255 HD
ATOM    109 HH22 ARG A  11      34.800 -52.567 -47.326  0.00  0.00    +0.255 HD
ATOM    110  NH1 ARG A  11      34.272 -52.680 -49.790  0.00  0.00    -0.292 N 
ATOM    111 HH11 ARG A  11      34.778 -53.510 -49.421  0.00  0.00    +0.255 HD
ATOM    112 HH12 ARG A  11      34.009 -52.635 -50.795  0.00  0.00    +0.255 HD
ATOM    113  HE  ARG A  11      33.070 -50.606 -50.461  0.00  0.00    +0.259 HD
ENDBRANCH 104 105
ENDBRANCH 103 104
ENDBRANCH 102 103
ENDBRANCH  79 102
ENDBRANCH  76  79
ENDBRANCH  74  75
ENDBRANCH  71  74
ENDBRANCH  69  70
ENDBRANCH  66  69
ENDBRANCH  64  65
BRANCH  64 114
ATOM    114  CB  LEU A   8      31.964 -52.634 -43.806  0.00  0.00    +0.029 C 
BRANCH 114 115
ATOM    115  CG  LEU A   8      31.400 -53.953 -44.347  0.00  0.00    +0.002 C 
ATOM    116  CD2 LEU A   8      31.744 -55.112 -43.420  0.00  0.00    +0.000 C 
ATOM    117  CD1 LEU A   8      31.884 -54.234 -45.765  0.00  0.00    +0.000 C 
ENDBRANCH 114 115
ENDBRANCH  64 114
ENDBRANCH  61  64
ENDBRANCH   1  60
BRANCH   1 118
ATOM    118  CB  MET A   7      33.677 -47.531 -43.379  0.00  0.00    +0.041 C 
BRANCH 118 119
ATOM    119  CG  MET A   7      34.150 -46.391 -42.484  0.00  0.00    +0.060 C 
BRANCH 119 120
ATOM    120  SD  MET A   7      33.268 -44.832 -42.725  0.00  0.00    -0.139 S 
ATOM    121  CE  MET A   7      33.843 -44.356 -44.353  0.00  0.00    +0.069 C 
ENDBRANCH 119 120
ENDBRANCH 118 119
ENDBRANCH   1 118
TORSDOF 52
REMARK  Name = ../refined-set-2016/4p6w/4p6w_pocket.pdb
REMARK  262 active torsions:
REMARK  status: ('A' for Active; 'I' for Inactive)
REMARK    1  A    between atoms: _1  and  _3
REMARK    2  A    between atoms: _3  and  _4
REMARK    3  A    between atoms: _3  and  _6
REMARK    4  A    between atoms: _6  and  _7
REMARK    5  A    between atoms: _10  and  _12
REMARK    6  A    between atoms: _12  and  _13
REMARK    7  A    between atoms: _12  and  _15
REMARK    8  A    between atoms: _15  and  _16
REMARK    9  A    between atoms: _19  and  _21
REMARK   10  A    between atoms: _21  and  _22
REMARK   11  A    between atoms: _21  and  _24
REMARK   12  A    between atoms: _24  and  _25
REMARK   13  A    between atoms: _35  and  _37
REMARK   14  A    between atoms: _37  and  _38
REMARK   15  A    between atoms: _37  and  _40
REMARK   16  A    between atoms: _40  and  _41
REMARK   17  A    between atoms: _44  and  _46
REMARK   18  A    between atoms: _46  and  _47
REMARK   19  A    between atoms: _46  and  _49
REMARK   20  A    between atoms: _49  and  _50
REMARK   21  A    between atoms: _50  and  _51
REMARK   22  A    between atoms: _53  and  _55
REMARK   23  A    between atoms: _55  and  _56
REMARK   24  A    between atoms: _55  and  _58
REMARK   25  A    between atoms: _58  and  _59
REMARK   26  A    between atoms: _62  and  _64
REMARK   27  A    between atoms: _64  and  _65
REMARK   28  A    between atoms: _64  and  _67
REMARK   29  A    between atoms: _67  and  _68
REMARK   30  A    between atoms: _71  and  _73
REMARK   31  A    between atoms: _73  and  _74
REMARK   32  A    between atoms: _73  and  _76
REMARK   33  A    between atoms: _76  and  _77
REMARK   34  A    between atoms: _80  and  _82
REMARK   35  A    between atoms: _82  and  _83
REMARK   36  A    between atoms: _82  and  _85
REMARK   37  A    between atoms: _85  and  _86
REMARK   38  A    between atoms: _91  and  _93
REMARK   39  A    between atoms: _93  and  _94
REMARK   40  A    between atoms: _93  and  _96
REMARK   41  A    between atoms: _96  and  _97
REMARK   42  A    between atoms: _97  and  _98
REMARK   43  A    between atoms: _100  and  _102
REMARK   44  A    between atoms: _102  and  _103
REMARK   45  A    between atoms: _102  and  _105
REMARK   46  A    between atoms: _105  and  _106
REMARK   47  A    between atoms: _109  and  _111
REMARK   48  A    between atoms: _111  and  _112
REMARK   49  A    between atoms: _114  and  _116
REMARK   50  A    between atoms: _116  and  _117
REMARK   51  A    between atoms: _119  and  _121
REMARK   52  A    between atoms: _121  and  _122
REMARK   53  A    between atoms: _121  and  _124
REMARK   54  A    between atoms: _124  and  _125
REMARK   55  A    between atoms: _125  and  _126
REMARK   56  A    between atoms: _126  and  _127
REMARK   57  A    between atoms: _136  and  _138
REMARK   58  A    between atoms: _138  and  _139
REMARK   59  A    between atoms: _138  and  _141
REMARK   60  A    between atoms: _141  and  _142
REMARK   61  A    between atoms: _142  and  _143
REMARK   62  A    between atoms: _148  and  _150
REMARK   63  A    between atoms: _150  and  _151
REMARK   64  A    between atoms: _150  and  _153
REMARK   65  A    between atoms: _156  and  _158
REMARK   66  A    between atoms: _158  and  _159
REMARK   67  A    between atoms: _158  and  _161
REMARK   68  A    between atoms: _161  and  _162
REMARK   69  A    between atoms: _172  and  _174
REMARK   70  A    between atoms: _174  and  _175
REMARK   71  A    between atoms: _174  and  _177
REMARK   72  A    between atoms: _177  and  _178
REMARK   73  A    between atoms: _178  and  _179
REMARK   74  A    between atoms: _181  and  _183
REMARK   75  A    between atoms: _183  and  _184
REMARK   76  A    between atoms: _187  and  _189
REMARK   77  A    between atoms: _189  and  _190
REMARK   78  A    between atoms: _189  and  _192
REMARK   79  A    between atoms: _192  and  _193
REMARK   80  A    between atoms: _196  and  _198
REMARK   81  A    between atoms: _198  and  _199
REMARK   82  A    between atoms: _198  and  _201
REMARK   83  A    between atoms: _201  and  _202
REMARK   84  A    between atoms: _202  and  _203
REMARK   85  A    between atoms: _205  and  _207
REMARK   86  A    between atoms: _207  and  _208
REMARK   87  A    between atoms: _211  and  _213
REMARK   88  A    between atoms: _213  and  _214
REMARK   89  A    between atoms: _213  and  _216
REMARK   90  A    between atoms: _216  and  _217
REMARK   91  A    between atoms: _223  and  _225
REMARK   92  A    between atoms: _225  and  _226
REMARK   93  A    between atoms: _229  and  _231
REMARK   94  A    between atoms: _231  and  _232
REMARK   95  A    between atoms: _231  and  _234
REMARK   96  A    between atoms: _234  and  _235
REMARK   97  A    between atoms: _238  and  _240
REMARK   98  A    between atoms: _240  and  _241
REMARK   99  A    between atoms: _243  and  _245
REMARK  100  A    between atoms: _245  and  _246
REMARK  101  A    between atoms: _245  and  _248
REMARK  102  A    between atoms: _248  and  _249
REMARK  103  A    between atoms: _249  and  _250
REMARK  104  A    between atoms: _250  and  _251
REMARK  105  A    between atoms: _260  and  _262
REMARK  106  A    between atoms: _262  and  _263
REMARK  107  A    between atoms: _262  and  _265
REMARK  108  A    between atoms: _265  and  _266
REMARK  109  A    between atoms: _268  and  _270
REMARK  110  A    between atoms: _270  and  _271
REMARK  111  A    between atoms: _270  and  _273
REMARK  112  A    between atoms: _273  and  _274
REMARK  113  A    between atoms: _277  and  _279
REMARK  114  A    between atoms: _279  and  _280
REMARK  115  A    between atoms: _279  and  _282
REMARK  116  A    between atoms: _282  and  _283
REMARK  117  A    between atoms: _288  and  _289
REMARK  118  A    between atoms: _291  and  _293
REMARK  119  A    between atoms: _293  and  _294
REMARK  120  A    between atoms: _293  and  _296
REMARK  121  A    between atoms: _296  and  _297
REMARK  122  A    between atoms: _303  and  _305
REMARK  123  A    between atoms: _305  and  _306
REMARK  124  A    between atoms: _309  and  _311
REMARK  125  A    between atoms: _311  and  _312
REMARK  126  A    between atoms: _311  and  _314
REMARK  127  A    between atoms: _314  and  _315
REMARK  128  A    between atoms: _318  and  _320
REMARK  129  A    between atoms: _320  and  _321
REMARK  130  A    between atoms: _320  and  _323
REMARK  131  A    between atoms: _323  and  _324
REMARK  132  A    between atoms: _327  and  _329
REMARK  133  A    between atoms: _329  and  _330
REMARK  134  A    between atoms: _329  and  _332
REMARK  135  A    between atoms: _332  and  _333
REMARK  136  A    between atoms: _333  and  _334
REMARK  137  A    between atoms: _334  and  _335
REMARK  138  A    between atoms: _344  and  _346
REMARK  139  A    between atoms: _346  and  _347
REMARK  140  A    between atoms: _346  and  _349
REMARK  141  A    between atoms: _349  and  _350
REMARK  142  A    between atoms: _350  and  _351
REMARK  143  A    between atoms: _353  and  _355
REMARK  144  A    between atoms: _355  and  _356
REMARK  145  A    between atoms: _355  and  _358
REMARK  146  A    between atoms: _358  and  _359
REMARK  147  A    between atoms: _363  and  _364
REMARK  148  A    between atoms: _369  and  _371
REMARK  149  A    between atoms: _371  and  _372
REMARK  150  A    between atoms: _371  and  _374
REMARK  151  A    between atoms: _376  and  _378
REMARK  152  A    between atoms: _378  and  _379
REMARK  153  A    between atoms: _378  and  _381
REMARK  154  A    between atoms: _381  and  _382
REMARK  155  A    between atoms: _382  and  _383
REMARK  156  A    between atoms: _385  and  _387
REMARK  157  A    between atoms: _387  and  _388
REMARK  158  A    between atoms: _387  and  _390
REMARK  159  A    between atoms: _390  and  _391
REMARK  160  A    between atoms: _396  and  _397
REMARK  161  A    between atoms: _399  and  _401
REMARK  162  A    between atoms: _401  and  _402
REMARK  163  A    between atoms: _401  and  _404
REMARK  164  A    between atoms: _404  and  _405
REMARK  165  A    between atoms: _408  and  _410
REMARK  166  A    between atoms: _410  and  _411
REMARK  167  A    between atoms: _410  and  _413
REMARK  168  A    between atoms: _413  and  _414
REMARK  169  A    between atoms: _414  and  _415
REMARK  170  A    between atoms: _420  and  _422
REMARK  171  A    between atoms: _422  and  _423
REMARK  172  A    between atoms: _422  and  _425
REMARK  173  A    between atoms: _427  and  _429
REMARK  174  A    between atoms: _429  and  _430
REMARK  175  A    between atoms: _429  and  _432
REMARK  176  A    between atoms: _432  and  _433
REMARK  177  A    between atoms: _433  and  _434
REMARK  178  A    between atoms: _434  and  _435
REMARK  179  A    between atoms: _435  and  _436
REMARK  180  A    between atoms: _440  and  _442
REMARK  181  A    between atoms: _442  and  _443
REMARK  182  A    between atoms: _442  and  _445
REMARK  183  A    between atoms: _445  and  _446
REMARK  184  A    between atoms: _451  and  _453
REMARK  185  A    between atoms: _453  and  _454
REMARK  186  A    between atoms: _453  and  _456
REMARK  187  A    between atoms: _456  and  _457
REMARK  188  A    between atoms: _457  and  _458
REMARK  189  A    between atoms: _460  and  _462
REMARK  190  A    between atoms: _462  and  _463
REMARK  191  A    between atoms: _462  and  _465
REMARK  192  A    between atoms: _468  and  _470
REMARK  193  A    between atoms: _470  and  _471
REMARK  194  A    between atoms: _470  and  _473
REMARK  195  A    between atoms: _476  and  _478
REMARK  196  A    between atoms: _478  and  _479
REMARK  197  A    between atoms: _478  and  _481
REMARK  198  A    between atoms: _481  and  _482
REMARK  199  A    between atoms: _487  and  _489
REMARK  200  A    between atoms: _489  and  _490
REMARK  201  A    between atoms: _489  and  _492
REMARK  202  A    between atoms: _492  and  _493
REMARK  203  A    between atoms: _496  and  _498
REMARK  204  A    between atoms: _498  and  _499
REMARK  205  A    between atoms: _498  and  _501
REMARK  206  A    between atoms: _501  and  _502
REMARK  207  A    between atoms: _505  and  _507
REMARK  208  A    between atoms: _507  and  _508
REMARK  209  A    between atoms: _507  and  _510
REMARK  210  A    between atoms: _510  and  _511
REMARK  211  A    between atoms: _516  and  _518
REMARK  212  A    between atoms: _518  and  _519
REMARK  213  A    between atoms: _518  and  _521
REMARK  214  A    between atoms: _521  and  _522
REMARK  215  A    between atoms: _527  and  _528
REMARK  216  A    between atoms: _530  and  _532
REMARK  217  A    between atoms: _532  and  _533
REMARK  218  A    between atoms: _532  and  _535
REMARK  219  A    between atoms: _537  and  _539
REMARK  220  A    between atoms: _539  and  _540
REMARK  221  A    between atoms: _539  and  _542
REMARK  222  A    between atoms: _542  and  _543
REMARK  223  A    between atoms: _549  and  _551
REMARK  224  A    between atoms: _551  and  _552
REMARK  225  A    between atoms: _551  and  _554
REMARK  226  A    between atoms: _554  and  _555
REMARK  227  A    between atoms: _555  and  _556
REMARK  228  A    between atoms: _561  and  _563
REMARK  229  A    between atoms: _563  and  _564
REMARK  230  A    between atoms: _563  and  _566
REMARK  231  A    between atoms: _566  and  _567
REMARK  232  A    between atoms: _570  and  _572
REMARK  233  A    between atoms: _572  and  _573
REMARK  234  A    between atoms: _572  and  _575
REMARK  235  A    between atoms: _575  and  _576
REMARK  236  A    between atoms: _582  and  _584
REMARK  237  A    between atoms: _584  and  _585
REMARK  238  A    between atoms: _584  and  _587
REMARK  239  A    between atoms: _587  and  _588
REMARK  240  A    between atoms: _588  and  _589
REMARK  241  A    between atoms: _591  and  _593
REMARK  242  A    between atoms: _593  and  _594
REMARK  243  A    between atoms: _593  and  _596
REMARK  244  A    between atoms: _596  and  _597
REMARK  245  A    between atoms: _600  and  _602
REMARK  246  A    between atoms: _602  and  _603
REMARK  247  A    between atoms: _602  and  _605
REMARK  248  A    between atoms: _605  and  _606
REMARK  249  A    between atoms: _606  and  _607
REMARK  250  A    between atoms: _610  and  _612
REMARK  251  A    between atoms: _612  and  _613
REMARK  252  A    between atoms: _612  and  _615
REMARK  253  A    between atoms: _615  and  _616
REMARK  254  A    between atoms: _623  and  _624
REMARK  255  A    between atoms: _629  and  _631
REMARK  256  A    between atoms: _631  and  _632
REMARK  257  A    between atoms: _631  and  _634
REMARK  258  A    between atoms: _634  and  _635
REMARK  259  A    between atoms: _638  and  _640
REMARK  260  A    between atoms: _640  and  _641
REMARK  261  A    between atoms: _640  and  _643
REMARK  262  A    between atoms: _643  and  _644
REMARK                            x       y       z     vdW  Elec       q    Type
REMARK                         _______ _______ _______ _____ _____    ______ ____
ROOT
ATOM      1  CA  MET A   5      22.117 -55.620 -43.264  0.00  0.00    +0.149 C 
ENDROOT
BRANCH   1   2
ATOM      2  C   MET A   5      22.246 -56.727 -42.216  0.00  0.00    +0.241 C 
ATOM      3  N   ALA A   6      21.381 -56.699 -41.207  0.00  0.00    -0.297 N 
ATOM      4  H   ALA A   6      20.656 -55.954 -41.175  0.00  0.00    +0.150 HD
ATOM      5  O   MET A   5      23.113 -57.594 -42.329  0.00  0.00    -0.273 OA
BRANCH   3   6
ATOM      6  CA  ALA A   6      21.431 -57.698 -40.141  0.00  0.00    +0.149 C 
ATOM      7  CB  ALA A   6      20.509 -57.297 -38.997  0.00  0.00    +0.031 C 
BRANCH   6   8
ATOM      8  C   ALA A   6      21.074 -59.097 -40.647  0.00  0.00    +0.241 C 
ATOM      9  O   ALA A   6      21.642 -60.094 -40.193  0.00  0.00    -0.273 OA
ATOM     10  N   PHE A   7      20.142 -59.172 -41.593  0.00  0.00    -0.297 N 
ATOM     11  H   PHE A   7      19.717 -58.299 -41.965  0.00  0.00    +0.150 HD
BRANCH  10  12
ATOM     12  CA  PHE A   7      19.708 -60.462 -42.115  0.00  0.00    +0.153 C 
BRANCH  12  13
ATOM     13  C   PHE A   7      20.820 -61.105 -42.938  0.00  0.00    +0.241 C 
ATOM     14  O   PHE A   7      21.089 -62.301 -42.803  0.00  0.00    -0.273 OA
ATOM     15  N   ALA A   8      21.475 -60.307 -43.780  0.00  0.00    -0.297 N 
ATOM     16  H   ALA A   8      21.182 -59.313 -43.872  0.00  0.00    +0.150 HD
BRANCH  15  17
ATOM     17  CA  ALA A   8      22.596 -60.799 -44.577  0.00  0.00    +0.149 C 
ATOM     18  CB  ALA A   8      23.048 -59.743 -45.579  0.00  0.00    +0.031 C 
BRANCH  17  19
ATOM     19  C   ALA A   8      23.762 -61.216 -43.681  0.00  0.00    +0.241 C 
ATOM     20  N   LEU A   9      23.994 -60.449 -42.619  0.00  0.00    -0.297 N 
ATOM     21  H   LEU A   9      23.437 -59.580 -42.489  0.00  0.00    +0.150 HD
ATOM     22  O   ALA A   8      24.435 -62.212 -43.953  0.00  0.00    -0.273 OA
BRANCH  20  23
ATOM     23  CA  LEU A   9      25.012 -60.798 -41.631  0.00  0.00    +0.149 C 
BRANCH  23  24
ATOM     24  C   LEU A   9      24.706 -62.153 -41.003  0.00  0.00    +0.241 C 
ATOM     25  N   GLY A  10      23.453 -62.337 -40.600  0.00  0.00    -0.296 N 
ATOM     26  H   GLY A  10      22.774 -61.554 -40.683  0.00  0.00    +0.150 HD
ATOM     27  O   LEU A   9      25.586 -63.006 -40.882  0.00  0.00    -0.273 OA
BRANCH  25  28
ATOM     28  CA  GLY A  10      23.008 -63.602 -40.047  0.00  0.00    +0.163 C 
BRANCH  28  29
ATOM     29  C   GLY A  10      23.245 -64.750 -41.007  0.00  0.00    +0.229 C 
ATOM     30  O   GLY A  10      23.707 -65.818 -40.608  0.00  0.00    -0.286 OA
ENDBRANCH  28  29
ENDBRANCH  25  28
ENDBRANCH  23  24
BRANCH  23  31
ATOM     31  CB  LEU A   9      25.103 -59.728 -40.543  0.00  0.00    +0.029 C 
BRANCH  31  32
ATOM     32  CG  LEU A   9      25.948 -60.107 -39.322  0.00  0.00    +0.002 C 
ATOM     33  CD2 LEU A   9      25.875 -59.021 -38.262  0.00  0.00    +0.000 C 
ATOM     34  CD1 LEU A   9      27.394 -60.384 -39.726  0.00  0.00    +0.000 C 
ENDBRANCH  31  32
ENDBRANCH  23  31
ENDBRANCH  20  23
ENDBRANCH  17  19
ENDBRANCH  15  17
ENDBRANCH  12  13
BRANCH  12  35
ATOM     35  CB  PHE A   7      18.438 -60.302 -42.953  0.00  0.00    +0.055 C 
BRANCH  35  36
ATOM     36  CG  PHE A   7      17.660 -61.581 -43.135  0.00  0.00    -0.020 A 
ATOM     37  CD2 PHE A   7      17.186 -62.283 -42.038  0.00  0.00    -0.004 A 
ATOM     38  CE2 PHE A   7      16.460 -63.455 -42.202  0.00  0.00    -0.000 A 
ATOM     39  CZ  PHE A   7      16.191 -63.928 -43.472  0.00  0.00    -0.000 A 
ATOM     40  CE1 PHE A   7      16.649 -63.234 -44.574  0.00  0.00    -0.000 A 
ATOM     41  CD1 PHE A   7      17.377 -62.065 -44.405  0.00  0.00    -0.004 A 
ENDBRANCH  35  36
ENDBRANCH  12  35
ENDBRANCH  10  12
ENDBRANCH   6   8
ENDBRANCH   3   6
ENDBRANCH   1   2
BRANCH   1  43
ATOM     42  C   LEU A   4      20.053 -56.348 -44.311  0.00  0.00    +0.241 C 
ATOM     43  N   MET A   5      20.726 -55.410 -43.651  0.00  0.00    -0.297 N 
ATOM     44  H   MET A   5      20.255 -54.515 -43.408  0.00  0.00    +0.150 HD
ATOM     45  O   LEU A   4      20.541 -57.441 -44.598  0.00  0.00    -0.273 OA
BRANCH  42  46
ATOM     46  CA  LEU A   4      18.619 -56.007 -44.710  0.00  0.00    +0.149 C 
BRANCH  46  49
ATOM     47  C   ALA A   3      17.669 -56.025 -42.466  0.00  0.00    +0.241 C 
ATOM     48  O   ALA A   3      18.066 -57.171 -42.242  0.00  0.00    -0.273 OA
ATOM     49  N   LEU A   4      17.881 -55.390 -43.615  0.00  0.00    -0.297 N 
ATOM     50  H   LEU A   4      17.510 -54.426 -43.736  0.00  0.00    +0.150 HD
BRANCH  47  51
ATOM     51  CA  ALA A   3      16.899 -55.242 -41.413  0.00  0.00    +0.149 C 
ATOM     52  CB  ALA A   3      15.426 -55.164 -41.783  0.00  0.00    +0.031 C 
BRANCH  51  55
ATOM     53  C   MET A   2      18.733 -53.717 -40.907  0.00  0.00    +0.241 C 
ATOM     54  O   MET A   2      19.501 -54.646 -40.643  0.00  0.00    -0.273 OA
ATOM     55  N   ALA A   3      17.461 -53.903 -41.256  0.00  0.00    -0.297 N 
ATOM     56  H   ALA A   3      16.854 -53.075 -41.421  0.00  0.00    +0.150 HD
BRANCH  53  57
ATOM     57  CA  MET A   2      19.216 -52.269 -40.845  0.00  0.00    +0.149 C 
BRANCH  57  59
ATOM     58  C   TRP A   1      19.043 -51.741 -43.211  0.00  0.00    +0.239 C 
ATOM     59  N   MET A   2      18.677 -51.488 -41.957  0.00  0.00    -0.297 N 
ATOM     60  H   MET A   2      17.998 -50.724 -41.765  0.00  0.00    +0.150 HD
ATOM     61  O   TRP A   1      19.831 -52.638 -43.505  0.00  0.00    -0.274 OA
BRANCH  58  62
ATOM     62  CA  TRP A   1      18.407 -50.887 -44.308  0.00  0.00    +0.149 C 
BRANCH  62  63
ATOM     63  N   TRP A   1      16.984 -50.662 -44.059  0.00  0.00    -0.238 NA
ATOM     64  H   TRP A   1      16.615 -49.693 -43.981  0.00  0.00    +0.142 HD
ENDBRANCH  62  63
BRANCH  62  65
ATOM     65  CB  TRP A   1      19.160 -49.557 -44.461  0.00  0.00    +0.054 C 
BRANCH  65  66
ATOM     66  CG  TRP A   1      19.374 -48.793 -43.189  0.00  0.00    -0.002 A 
ATOM     67  CD2 TRP A   1      20.501 -48.891 -42.309  0.00  0.00    +0.013 A 
ATOM     68  CE2 TRP A   1      20.283 -47.985 -41.252  0.00  0.00    +0.056 A 
ATOM     69  CZ2 TRP A   1      21.189 -47.826 -40.208  0.00  0.00    +0.017 A 
ATOM     70  CH2 TRP A   1      22.323 -48.590 -40.235  0.00  0.00    +0.001 A 
ATOM     71  CZ3 TRP A   1      22.570 -49.501 -41.271  0.00  0.00    +0.000 A 
ATOM     72  NE1 TRP A   1      19.083 -47.366 -41.483  0.00  0.00    -0.352 N 
ATOM     73  HE1 TRP A   1      18.649 -46.643 -40.875  0.00  0.00    +0.166 HD
ATOM     74  CE3 TRP A   1      21.672 -49.659 -42.309  0.00  0.00    +0.001 A 
ATOM     75  CD1 TRP A   1      18.547 -47.857 -42.649  0.00  0.00    +0.068 A 
ENDBRANCH  65  66
ENDBRANCH  62  65
ENDBRANCH  58  62
ENDBRANCH  57  59
BRANCH  57  76
ATOM     76  CB  MET A   2      18.831 -51.639 -39.504  0.00  0.00    +0.041 C 
BRANCH  76  77
ATOM     77  CG  MET A   2      19.406 -52.368 -38.293  0.00  0.00    +0.060 C 
BRANCH  77  78
ATOM     78  SD  MET A   2      21.226 -52.367 -38.261  0.00  0.00    -0.139 S 
ATOM     79  CE  MET A   2      21.532 -50.793 -37.450  0.00  0.00    +0.069 C 
ENDBRANCH  77  78
ENDBRANCH  76  77
ENDBRANCH  57  76
ENDBRANCH  53  57
ENDBRANCH  51  55
ENDBRANCH  47  51
ENDBRANCH  46  49
BRANCH  46  80
ATOM     80  CB  LEU A   4      18.626 -55.084 -45.931  0.00  0.00    +0.029 C 
BRANCH  80  81
ATOM     81  CG  LEU A   4      17.274 -54.821 -46.594  0.00  0.00    +0.002 C 
ATOM     82  CD2 LEU A   4      16.712 -56.110 -47.173  0.00  0.00    +0.000 C 
ATOM     83  CD1 LEU A   4      17.402 -53.748 -47.671  0.00  0.00    +0.000 C 
ENDBRANCH  80  81
ENDBRANCH  46  80
ENDBRANCH  42  46
ENDBRANCH   1  43
BRANCH   1  84
ATOM     84  CB  MET A   5      22.738 -54.319 -42.741  0.00  0.00    +0.041 C 
BRANCH  84  85
ATOM     85  CG  MET A   5      22.865 -53.213 -43.789  0.00  0.00    +0.060 C 
BRANCH  85  86
ATOM     86  SD  MET A   5      23.703 -53.748 -45.293  0.00  0.00    -0.139 S 
ATOM     87  CE  MET A   5      22.336 -53.940 -46.434  0.00  0.00    +0.069 C 
ENDBRANCH  85  86
ENDBRANCH  84  85
ENDBRANCH   1  84
TORSDOF 34
REMARK  Name = ../refined-set-2016/4p6w/4p6w_pocket.pdb
REMARK  262 active torsions:
REMARK  status: ('A' for Active; 'I' for Inactive)
REMARK    1  A    between atoms: _1  and  _3
REMARK    2  A    between atoms: _3  and  _4
REMARK    3  A    between atoms: _3  and  _6
REMARK    4  A    between atoms: _6  and  _7
REMARK    5  A    between atoms: _10  and  _12
REMARK    6  A    between atoms: _12  and  _13
REMARK    7  A    between atoms: _12  and  _15
REMARK    8  A    between atoms: _15  and  _16
REMARK    9  A    between atoms: _19  and  _21
REMARK   10  A    between atoms: _21  and  _22
REMARK   11  A    between atoms: _21  and  _24
REMARK   12  A    between atoms: _24  and  _25
REMARK   13  A    between atoms: _35  and  _37
REMARK   14  A    between atoms: _37  and  _38
REMARK   15  A    between atoms: _37  and  _40
REMARK   16  A    between atoms: _40  and  _41
REMARK   17  A    between atoms: _44  and  _46
REMARK   18  A    between atoms: _46  and  _47
REMARK   19  A    between atoms: _46  and  _49
REMARK   20  A    between atoms: _49  and  _50
REMARK   21  A    between atoms: _50  and  _51
REMARK   22  A    between atoms: _53  and  _55
REMARK   23  A    between atoms: _55  and  _56
REMARK   24  A    between atoms: _55  and  _58
REMARK   25  A    between atoms: _58  and  _59
REMARK   26  A    between atoms: _62  and  _64
REMARK   27  A    between atoms: _64  and  _65
REMARK   28  A    between atoms: _64  and  _67
REMARK   29  A    between atoms: _67  and  _68
REMARK   30  A    between atoms: _71  and  _73
REMARK   31  A    between atoms: _73  and  _74
REMARK   32  A    between atoms: _73  and  _76
REMARK   33  A    between atoms: _76  and  _77
REMARK   34  A    between atoms: _80  and  _82
REMARK   35  A    between atoms: _82  and  _83
REMARK   36  A    between atoms: _82  and  _85
REMARK   37  A    between atoms: _85  and  _86
REMARK   38  A    between atoms: _91  and  _93
REMARK   39  A    between atoms: _93  and  _94
REMARK   40  A    between atoms: _93  and  _96
REMARK   41  A    between atoms: _96  and  _97
REMARK   42  A    between atoms: _97  and  _98
REMARK   43  A    between atoms: _100  and  _102
REMARK   44  A    between atoms: _102  and  _103
REMARK   45  A    between atoms: _102  and  _105
REMARK   46  A    between atoms: _105  and  _106
REMARK   47  A    between atoms: _109  and  _111
REMARK   48  A    between atoms: _111  and  _112
REMARK   49  A    between atoms: _114  and  _116
REMARK   50  A    between atoms: _116  and  _117
REMARK   51  A    between atoms: _119  and  _121
REMARK   52  A    between atoms: _121  and  _122
REMARK   53  A    between atoms: _121  and  _124
REMARK   54  A    between atoms: _124  and  _125
REMARK   55  A    between atoms: _125  and  _126
REMARK   56  A    between atoms: _126  and  _127
REMARK   57  A    between atoms: _136  and  _138
REMARK   58  A    between atoms: _138  and  _139
REMARK   59  A    between atoms: _138  and  _141
REMARK   60  A    between atoms: _141  and  _142
REMARK   61  A    between atoms: _142  and  _143
REMARK   62  A    between atoms: _148  and  _150
REMARK   63  A    between atoms: _150  and  _151
REMARK   64  A    between atoms: _150  and  _153
REMARK   65  A    between atoms: _156  and  _158
REMARK   66  A    between atoms: _158  and  _159
REMARK   67  A    between atoms: _158  and  _161
REMARK   68  A    between atoms: _161  and  _162
REMARK   69  A    between atoms: _172  and  _174
REMARK   70  A    between atoms: _174  and  _175
REMARK   71  A    between atoms: _174  and  _177
REMARK   72  A    between atoms: _177  and  _178
REMARK   73  A    between atoms: _178  and  _179
REMARK   74  A    between atoms: _181  and  _183
REMARK   75  A    between atoms: _183  and  _184
REMARK   76  A    between atoms: _187  and  _189
REMARK   77  A    between atoms: _189  and  _190
REMARK   78  A    between atoms: _189  and  _192
REMARK   79  A    between atoms: _192  and  _193
REMARK   80  A    between atoms: _196  and  _198
REMARK   81  A    between atoms: _198  and  _199
REMARK   82  A    between atoms: _198  and  _201
REMARK   83  A    between atoms: _201  and  _202
REMARK   84  A    between atoms: _202  and  _203
REMARK   85  A    between atoms: _205  and  _207
REMARK   86  A    between atoms: _207  and  _208
REMARK   87  A    between atoms: _211  and  _213
REMARK   88  A    between atoms: _213  and  _214
REMARK   89  A    between atoms: _213  and  _216
REMARK   90  A    between atoms: _216  and  _217
REMARK   91  A    between atoms: _223  and  _225
REMARK   92  A    between atoms: _225  and  _226
REMARK   93  A    between atoms: _229  and  _231
REMARK   94  A    between atoms: _231  and  _232
REMARK   95  A    between atoms: _231  and  _234
REMARK   96  A    between atoms: _234  and  _235
REMARK   97  A    between atoms: _238  and  _240
REMARK   98  A    between atoms: _240  and  _241
REMARK   99  A    between atoms: _243  and  _245
REMARK  100  A    between atoms: _245  and  _246
REMARK  101  A    between atoms: _245  and  _248
REMARK  102  A    between atoms: _248  and  _249
REMARK  103  A    between atoms: _249  and  _250
REMARK  104  A    between atoms: _250  and  _251
REMARK  105  A    between atoms: _260  and  _262
REMARK  106  A    between atoms: _262  and  _263
REMARK  107  A    between atoms: _262  and  _265
REMARK  108  A    between atoms: _265  and  _266
REMARK  109  A    between atoms: _268  and  _270
REMARK  110  A    between atoms: _270  and  _271
REMARK  111  A    between atoms: _270  and  _273
REMARK  112  A    between atoms: _273  and  _274
REMARK  113  A    between atoms: _277  and  _279
REMARK  114  A    between atoms: _279  and  _280
REMARK  115  A    between atoms: _279  and  _282
REMARK  116  A    between atoms: _282  and  _283
REMARK  117  A    between atoms: _288  and  _289
REMARK  118  A    between atoms: _291  and  _293
REMARK  119  A    between atoms: _293  and  _294
REMARK  120  A    between atoms: _293  and  _296
REMARK  121  A    between atoms: _296  and  _297
REMARK  122  A    between atoms: _303  and  _305
REMARK  123  A    between atoms: _305  and  _306
REMARK  124  A    between atoms: _309  and  _311
REMARK  125  A    between atoms: _311  and  _312
REMARK  126  A    between atoms: _311  and  _314
REMARK  127  A    between atoms: _314  and  _315
REMARK  128  A    between atoms: _318  and  _320
REMARK  129  A    between atoms: _320  and  _321
REMARK  130  A    between atoms: _320  and  _323
REMARK  131  A    between atoms: _323  and  _324
REMARK  132  A    between atoms: _327  and  _329
REMARK  133  A    between atoms: _329  and  _330
REMARK  134  A    between atoms: _329  and  _332
REMARK  135  A    between atoms: _332  and  _333
REMARK  136  A    between atoms: _333  and  _334
REMARK  137  A    between atoms: _334  and  _335
REMARK  138  A    between atoms: _344  and  _346
REMARK  139  A    between atoms: _346  and  _347
REMARK  140  A    between atoms: _346  and  _349
REMARK  141  A    between atoms: _349  and  _350
REMARK  142  A    between atoms: _350  and  _351
REMARK  143  A    between atoms: _353  and  _355
REMARK  144  A    between atoms: _355  and  _356
REMARK  145  A    between atoms: _355  and  _358
REMARK  146  A    between atoms: _358  and  _359
REMARK  147  A    between atoms: _363  and  _364
REMARK  148  A    between atoms: _369  and  _371
REMARK  149  A    between atoms: _371  and  _372
REMARK  150  A    between atoms: _371  and  _374
REMARK  151  A    between atoms: _376  and  _378
REMARK  152  A    between atoms: _378  and  _379
REMARK  153  A    between atoms: _378  and  _381
REMARK  154  A    between atoms: _381  and  _382
REMARK  155  A    between atoms: _382  and  _383
REMARK  156  A    between atoms: _385  and  _387
REMARK  157  A    between atoms: _387  and  _388
REMARK  158  A    between atoms: _387  and  _390
REMARK  159  A    between atoms: _390  and  _391
REMARK  160  A    between atoms: _396  and  _397
REMARK  161  A    between atoms: _399  and  _401
REMARK  162  A    between atoms: _401  and  _402
REMARK  163  A    between atoms: _401  and  _404
REMARK  164  A    between atoms: _404  and  _405
REMARK  165  A    between atoms: _408  and  _410
REMARK  166  A    between atoms: _410  and  _411
REMARK  167  A    between atoms: _410  and  _413
REMARK  168  A    between atoms: _413  and  _414
REMARK  169  A    between atoms: _414  and  _415
REMARK  170  A    between atoms: _420  and  _422
REMARK  171  A    between atoms: _422  and  _423
REMARK  172  A    between atoms: _422  and  _425
REMARK  173  A    between atoms: _427  and  _429
REMARK  174  A    between atoms: _429  and  _430
REMARK  175  A    between atoms: _429  and  _432
REMARK  176  A    between atoms: _432  and  _433
REMARK  177  A    between atoms: _433  and  _434
REMARK  178  A    between atoms: _434  and  _435
REMARK  179  A    between atoms: _435  and  _436
REMARK  180  A    between atoms: _440  and  _442
REMARK  181  A    between atoms: _442  and  _443
REMARK  182  A    between atoms: _442  and  _445
REMARK  183  A    between atoms: _445  and  _446
REMARK  184  A    between atoms: _451  and  _453
REMARK  185  A    between atoms: _453  and  _454
REMARK  186  A    between atoms: _453  and  _456
REMARK  187  A    between atoms: _456  and  _457
REMARK  188  A    between atoms: _457  and  _458
REMARK  189  A    between atoms: _460  and  _462
REMARK  190  A    between atoms: _462  and  _463
REMARK  191  A    between atoms: _462  and  _465
REMARK  192  A    between atoms: _468  and  _470
REMARK  193  A    between atoms: _470  and  _471
REMARK  194  A    between atoms: _470  and  _473
REMARK  195  A    between atoms: _476  and  _478
REMARK  196  A    between atoms: _478  and  _479
REMARK  197  A    between atoms: _478  and  _481
REMARK  198  A    between atoms: _481  and  _482
REMARK  199  A    between atoms: _487  and  _489
REMARK  200  A    between atoms: _489  and  _490
REMARK  201  A    between atoms: _489  and  _492
REMARK  202  A    between atoms: _492  and  _493
REMARK  203  A    between atoms: _496  and  _498
REMARK  204  A    between atoms: _498  and  _499
REMARK  205  A    between atoms: _498  and  _501
REMARK  206  A    between atoms: _501  and  _502
REMARK  207  A    between atoms: _505  and  _507
REMARK  208  A    between atoms: _507  and  _508
REMARK  209  A    between atoms: _507  and  _510
REMARK  210  A    between atoms: _510  and  _511
REMARK  211  A    between atoms: _516  and  _518
REMARK  212  A    between atoms: _518  and  _519
REMARK  213  A    between atoms: _518  and  _521
REMARK  214  A    between atoms: _521  and  _522
REMARK  215  A    between atoms: _527  and  _528
REMARK  216  A    between atoms: _530  and  _532
REMARK  217  A    between atoms: _532  and  _533
REMARK  218  A    between atoms: _532  and  _535
REMARK  219  A    between atoms: _537  and  _539
REMARK  220  A    between atoms: _539  and  _540
REMARK  221  A    between atoms: _539  and  _542
REMARK  222  A    between atoms: _542  and  _543
REMARK  223  A    between atoms: _549  and  _551
REMARK  224  A    between atoms: _551  and  _552
REMARK  225  A    between atoms: _551  and  _554
REMARK  226  A    between atoms: _554  and  _555
REMARK  227  A    between atoms: _555  and  _556
REMARK  228  A    between atoms: _561  and  _563
REMARK  229  A    between atoms: _563  and  _564
REMARK  230  A    between atoms: _563  and  _566
REMARK  231  A    between atoms: _566  and  _567
REMARK  232  A    between atoms: _570  and  _572
REMARK  233  A    between atoms: _572  and  _573
REMARK  234  A    between atoms: _572  and  _575
REMARK  235  A    between atoms: _575  and  _576
REMARK  236  A    between atoms: _582  and  _584
REMARK  237  A    between atoms: _584  and  _585
REMARK  238  A    between atoms: _584  and  _587
REMARK  239  A    between atoms: _587  and  _588
REMARK  240  A    between atoms: _588  and  _589
REMARK  241  A    between atoms: _591  and  _593
REMARK  242  A    between atoms: _593  and  _594
REMARK  243  A    between atoms: _593  and  _596
REMARK  244  A    between atoms: _596  and  _597
REMARK  245  A    between atoms: _600  and  _602
REMARK  246  A    between atoms: _602  and  _603
REMARK  247  A    between atoms: _602  and  _605
REMARK  248  A    between atoms: _605  and  _606
REMARK  249  A    between atoms: _606  and  _607
REMARK  250  A    between atoms: _610  and  _612
REMARK  251  A    between atoms: _612  and  _613
REMARK  252  A    between atoms: _612  and  _615
REMARK  253  A    between atoms: _615  and  _616
REMARK  254  A    between atoms: _623  and  _624
REMARK  255  A    between atoms: _629  and  _631
REMARK  256  A    between atoms: _631  and  _632
REMARK  257  A    between atoms: _631  and  _634
REMARK  258  A    between atoms: _634  and  _635
REMARK  259  A    between atoms: _638  and  _640
REMARK  260  A    between atoms: _640  and  _641
REMARK  261  A    between atoms: _640  and  _643
REMARK  262  A    between atoms: _643  and  _644
REMARK                            x       y       z     vdW  Elec       q    Type
REMARK                         _______ _______ _______ _____ _____    ______ ____
ROOT
ATOM      1  CA  ARG A   1      26.882 -65.273 -43.775  0.00  0.00    +0.145 C 
ENDROOT
BRANCH   1   2
ATOM      2  C   ARG A   1      27.423 -66.028 -42.563  0.00  0.00    +0.238 C 
ATOM      3  N   SER A   2      26.991 -65.611 -41.378  0.00  0.00    -0.296 N 
ATOM      4  H   SER A   2      26.323 -64.815 -41.336  0.00  0.00    +0.150 HD
ATOM      5  O   ARG A   1      28.207 -66.967 -42.704  0.00  0.00    -0.274 OA
BRANCH   3   6
ATOM      6  CA  SER A   2      27.426 -66.236 -40.132  0.00  0.00    +0.166 C 
BRANCH   6   7
ATOM      7  CB  SER A   2      26.942 -67.680 -40.056  0.00  0.00    +0.229 C 
ATOM      8  OG  SER A   2      27.693 -68.585 -39.690  0.00  0.00    -0.286 OA
ENDBRANCH   6   7
BRANCH   6   9
ATOM      9  C   SER A   2      26.912 -65.442 -38.933  0.00  0.00    +0.165 C 
BRANCH   9  10
ATOM     10  O   SER A   2      27.356 -64.096 -38.990  0.00  0.00    -0.380 OA
ATOM     11  H   SER A   2      27.020 -63.674 -39.820  0.00  0.00    +0.211 HD
ENDBRANCH   9  10
ENDBRANCH   6   9
ENDBRANCH   3   6
ENDBRANCH   1   2
BRANCH   1  12
ATOM     12  N   ARG A   1      25.457 -64.992 -43.622  0.00  0.00    -0.238 NA
ATOM     13  H   ARG A   1      25.125 -64.007 -43.642  0.00  0.00    +0.142 HD
ENDBRANCH   1  12
BRANCH   1  14
ATOM     14  CB  ARG A   1      27.676 -63.979 -43.981  0.00  0.00    +0.030 C 
BRANCH  14  15
ATOM     15  CG  ARG A   1      27.412 -63.282 -45.306  0.00  0.00    +0.045 C 
BRANCH  15  16
ATOM     16  CD  ARG A   1      28.419 -62.170 -45.566  0.00  0.00    +0.174 C 
BRANCH  16  17
ATOM     17  NE  ARG A   1      28.406 -61.144 -44.525  0.00  0.00    -0.265 N 
ATOM     18  HE  ARG A   1      29.075 -61.244 -43.735  0.00  0.00    +0.259 HD
ATOM     19  CZ  ARG A   1      27.595 -60.092 -44.522  0.00  0.00    +0.342 C 
ATOM     20  NH2 ARG A   1      27.654 -59.206 -43.537  0.00  0.00    -0.292 N 
ATOM     21 HH21 ARG A   1      28.337 -59.333 -42.763  0.00  0.00    +0.255 HD
ATOM     22 HH22 ARG A   1      27.017 -58.384 -43.538  0.00  0.00    +0.255 HD
ATOM     23  NH1 ARG A   1      26.718 -59.926 -45.505  0.00  0.00    -0.292 N 
ATOM     24 HH11 ARG A   1      26.083 -59.102 -45.502  0.00  0.00    +0.255 HD
ATOM     25 HH12 ARG A   1      26.666 -60.620 -46.278  0.00  0.00    +0.255 HD
ENDBRANCH  16  17
ENDBRANCH  15  16
ENDBRANCH  14  15
ENDBRANCH   1  14
TORSDOF 10
REMARK  Name = ../refined-set-2016/4p6w/4p6w_pocket.pdb
REMARK  262 active torsions:
REMARK  status: ('A' for Active; 'I' for Inactive)
REMARK    1  A    between atoms: _1  and  _3
REMARK    2  A    between atoms: _3  and  _4
REMARK    3  A    between atoms: _3  and  _6
REMARK    4  A    between atoms: _6  and  _7
REMARK    5  A    between atoms: _10  and  _12
REMARK    6  A    between atoms: _12  and  _13
REMARK    7  A    between atoms: _12  and  _15
REMARK    8  A    between atoms: _15  and  _16
REMARK    9  A    between atoms: _19  and  _21
REMARK   10  A    between atoms: _21  and  _22
REMARK   11  A    between atoms: _21  and  _24
REMARK   12  A    between atoms: _24  and  _25
REMARK   13  A    between atoms: _35  and  _37
REMARK   14  A    between atoms: _37  and  _38
REMARK   15  A    between atoms: _37  and  _40
REMARK   16  A    between atoms: _40  and  _41
REMARK   17  A    between atoms: _44  and  _46
REMARK   18  A    between atoms: _46  and  _47
REMARK   19  A    between atoms: _46  and  _49
REMARK   20  A    between atoms: _49  and  _50
REMARK   21  A    between atoms: _50  and  _51
REMARK   22  A    between atoms: _53  and  _55
REMARK   23  A    between atoms: _55  and  _56
REMARK   24  A    between atoms: _55  and  _58
REMARK   25  A    between atoms: _58  and  _59
REMARK   26  A    between atoms: _62  and  _64
REMARK   27  A    between atoms: _64  and  _65
REMARK   28  A    between atoms: _64  and  _67
REMARK   29  A    between atoms: _67  and  _68
REMARK   30  A    between atoms: _71  and  _73
REMARK   31  A    between atoms: _73  and  _74
REMARK   32  A    between atoms: _73  and  _76
REMARK   33  A    between atoms: _76  and  _77
REMARK   34  A    between atoms: _80  and  _82
REMARK   35  A    between atoms: _82  and  _83
REMARK   36  A    between atoms: _82  and  _85
REMARK   37  A    between atoms: _85  and  _86
REMARK   38  A    between atoms: _91  and  _93
REMARK   39  A    between atoms: _93  and  _94
REMARK   40  A    between atoms: _93  and  _96
REMARK   41  A    between atoms: _96  and  _97
REMARK   42  A    between atoms: _97  and  _98
REMARK   43  A    between atoms: _100  and  _102
REMARK   44  A    between atoms: _102  and  _103
REMARK   45  A    between atoms: _102  and  _105
REMARK   46  A    between atoms: _105  and  _106
REMARK   47  A    between atoms: _109  and  _111
REMARK   48  A    between atoms: _111  and  _112
REMARK   49  A    between atoms: _114  and  _116
REMARK   50  A    between atoms: _116  and  _117
REMARK   51  A    between atoms: _119  and  _121
REMARK   52  A    between atoms: _121  and  _122
REMARK   53  A    between atoms: _121  and  _124
REMARK   54  A    between atoms: _124  and  _125
REMARK   55  A    between atoms: _125  and  _126
REMARK   56  A    between atoms: _126  and  _127
REMARK   57  A    between atoms: _136  and  _138
REMARK   58  A    between atoms: _138  and  _139
REMARK   59  A    between atoms: _138  and  _141
REMARK   60  A    between atoms: _141  and  _142
REMARK   61  A    between atoms: _142  and  _143
REMARK   62  A    between atoms: _148  and  _150
REMARK   63  A    between atoms: _150  and  _151
REMARK   64  A    between atoms: _150  and  _153
REMARK   65  A    between atoms: _156  and  _158
REMARK   66  A    between atoms: _158  and  _159
REMARK   67  A    between atoms: _158  and  _161
REMARK   68  A    between atoms: _161  and  _162
REMARK   69  A    between atoms: _172  and  _174
REMARK   70  A    between atoms: _174  and  _175
REMARK   71  A    between atoms: _174  and  _177
REMARK   72  A    between atoms: _177  and  _178
REMARK   73  A    between atoms: _178  and  _179
REMARK   74  A    between atoms: _181  and  _183
REMARK   75  A    between atoms: _183  and  _184
REMARK   76  A    between atoms: _187  and  _189
REMARK   77  A    between atoms: _189  and  _190
REMARK   78  A    between atoms: _189  and  _192
REMARK   79  A    between atoms: _192  and  _193
REMARK   80  A    between atoms: _196  and  _198
REMARK   81  A    between atoms: _198  and  _199
REMARK   82  A    between atoms: _198  and  _201
REMARK   83  A    between atoms: _201  and  _202
REMARK   84  A    between atoms: _202  and  _203
REMARK   85  A    between atoms: _205  and  _207
REMARK   86  A    between atoms: _207  and  _208
REMARK   87  A    between atoms: _211  and  _213
REMARK   88  A    between atoms: _213  and  _214
REMARK   89  A    between atoms: _213  and  _216
REMARK   90  A    between atoms: _216  and  _217
REMARK   91  A    between atoms: _223  and  _225
REMARK   92  A    between atoms: _225  and  _226
REMARK   93  A    between atoms: _229  and  _231
REMARK   94  A    between atoms: _231  and  _232
REMARK   95  A    between atoms: _231  and  _234
REMARK   96  A    between atoms: _234  and  _235
REMARK   97  A    between atoms: _238  and  _240
REMARK   98  A    between atoms: _240  and  _241
REMARK   99  A    between atoms: _243  and  _245
REMARK  100  A    between atoms: _245  and  _246
REMARK  101  A    between atoms: _245  and  _248
REMARK  102  A    between atoms: _248  and  _249
REMARK  103  A    between atoms: _249  and  _250
REMARK  104  A    between atoms: _250  and  _251
REMARK  105  A    between atoms: _260  and  _262
REMARK  106  A    between atoms: _262  and  _263
REMARK  107  A    between atoms: _262  and  _265
REMARK  108  A    between atoms: _265  and  _266
REMARK  109  A    between atoms: _268  and  _270
REMARK  110  A    between atoms: _270  and  _271
REMARK  111  A    between atoms: _270  and  _273
REMARK  112  A    between atoms: _273  and  _274
REMARK  113  A    between atoms: _277  and  _279
REMARK  114  A    between atoms: _279  and  _280
REMARK  115  A    between atoms: _279  and  _282
REMARK  116  A    between atoms: _282  and  _283
REMARK  117  A    between atoms: _288  and  _289
REMARK  118  A    between atoms: _291  and  _293
REMARK  119  A    between atoms: _293  and  _294
REMARK  120  A    between atoms: _293  and  _296
REMARK  121  A    between atoms: _296  and  _297
REMARK  122  A    between atoms: _303  and  _305
REMARK  123  A    between atoms: _305  and  _306
REMARK  124  A    between atoms: _309  and  _311
REMARK  125  A    between atoms: _311  and  _312
REMARK  126  A    between atoms: _311  and  _314
REMARK  127  A    between atoms: _314  and  _315
REMARK  128  A    between atoms: _318  and  _320
REMARK  129  A    between atoms: _320  and  _321
REMARK  130  A    between atoms: _320  and  _323
REMARK  131  A    between atoms: _323  and  _324
REMARK  132  A    between atoms: _327  and  _329
REMARK  133  A    between atoms: _329  and  _330
REMARK  134  A    between atoms: _329  and  _332
REMARK  135  A    between atoms: _332  and  _333
REMARK  136  A    between atoms: _333  and  _334
REMARK  137  A    between atoms: _334  and  _335
REMARK  138  A    between atoms: _344  and  _346
REMARK  139  A    between atoms: _346  and  _347
REMARK  140  A    between atoms: _346  and  _349
REMARK  141  A    between atoms: _349  and  _350
REMARK  142  A    between atoms: _350  and  _351
REMARK  143  A    between atoms: _353  and  _355
REMARK  144  A    between atoms: _355  and  _356
REMARK  145  A    between atoms: _355  and  _358
REMARK  146  A    between atoms: _358  and  _359
REMARK  147  A    between atoms: _363  and  _364
REMARK  148  A    between atoms: _369  and  _371
REMARK  149  A    between atoms: _371  and  _372
REMARK  150  A    between atoms: _371  and  _374
REMARK  151  A    between atoms: _376  and  _378
REMARK  152  A    between atoms: _378  and  _379
REMARK  153  A    between atoms: _378  and  _381
REMARK  154  A    between atoms: _381  and  _382
REMARK  155  A    between atoms: _382  and  _383
REMARK  156  A    between atoms: _385  and  _387
REMARK  157  A    between atoms: _387  and  _388
REMARK  158  A    between atoms: _387  and  _390
REMARK  159  A    between atoms: _390  and  _391
REMARK  160  A    between atoms: _396  and  _397
REMARK  161  A    between atoms: _399  and  _401
REMARK  162  A    between atoms: _401  and  _402
REMARK  163  A    between atoms: _401  and  _404
REMARK  164  A    between atoms: _404  and  _405
REMARK  165  A    between atoms: _408  and  _410
REMARK  166  A    between atoms: _410  and  _411
REMARK  167  A    between atoms: _410  and  _413
REMARK  168  A    between atoms: _413  and  _414
REMARK  169  A    between atoms: _414  and  _415
REMARK  170  A    between atoms: _420  and  _422
REMARK  171  A    between atoms: _422  and  _423
REMARK  172  A    between atoms: _422  and  _425
REMARK  173  A    between atoms: _427  and  _429
REMARK  174  A    between atoms: _429  and  _430
REMARK  175  A    between atoms: _429  and  _432
REMARK  176  A    between atoms: _432  and  _433
REMARK  177  A    between atoms: _433  and  _434
REMARK  178  A    between atoms: _434  and  _435
REMARK  179  A    between atoms: _435  and  _436
REMARK  180  A    between atoms: _440  and  _442
REMARK  181  A    between atoms: _442  and  _443
REMARK  182  A    between atoms: _442  and  _445
REMARK  183  A    between atoms: _445  and  _446
REMARK  184  A    between atoms: _451  and  _453
REMARK  185  A    between atoms: _453  and  _454
REMARK  186  A    between atoms: _453  and  _456
REMARK  187  A    between atoms: _456  and  _457
REMARK  188  A    between atoms: _457  and  _458
REMARK  189  A    between atoms: _460  and  _462
REMARK  190  A    between atoms: _462  and  _463
REMARK  191  A    between atoms: _462  and  _465
REMARK  192  A    between atoms: _468  and  _470
REMARK  193  A    between atoms: _470  and  _471
REMARK  194  A    between atoms: _470  and  _473
REMARK  195  A    between atoms: _476  and  _478
REMARK  196  A    between atoms: _478  and  _479
REMARK  197  A    between atoms: _478  and  _481
REMARK  198  A    between atoms: _481  and  _482
REMARK  199  A    between atoms: _487  and  _489
REMARK  200  A    between atoms: _489  and  _490
REMARK  201  A    between atoms: _489  and  _492
REMARK  202  A    between atoms: _492  and  _493
REMARK  203  A    between atoms: _496  and  _498
REMARK  204  A    between atoms: _498  and  _499
REMARK  205  A    between atoms: _498  and  _501
REMARK  206  A    between atoms: _501  and  _502
REMARK  207  A    between atoms: _505  and  _507
REMARK  208  A    between atoms: _507  and  _508
REMARK  209  A    between atoms: _507  and  _510
REMARK  210  A    between atoms: _510  and  _511
REMARK  211  A    between atoms: _516  and  _518
REMARK  212  A    between atoms: _518  and  _519
REMARK  213  A    between atoms: _518  and  _521
REMARK  214  A    between atoms: _521  and  _522
REMARK  215  A    between atoms: _527  and  _528
REMARK  216  A    between atoms: _530  and  _532
REMARK  217  A    between atoms: _532  and  _533
REMARK  218  A    between atoms: _532  and  _535
REMARK  219  A    between atoms: _537  and  _539
REMARK  220  A    between atoms: _539  and  _540
REMARK  221  A    between atoms: _539  and  _542
REMARK  222  A    between atoms: _542  and  _543
REMARK  223  A    between atoms: _549  and  _551
REMARK  224  A    between atoms: _551  and  _552
REMARK  225  A    between atoms: _551  and  _554
REMARK  226  A    between atoms: _554  and  _555
REMARK  227  A    between atoms: _555  and  _556
REMARK  228  A    between atoms: _561  and  _563
REMARK  229  A    between atoms: _563  and  _564
REMARK  230  A    between atoms: _563  and  _566
REMARK  231  A    between atoms: _566  and  _567
REMARK  232  A    between atoms: _570  and  _572
REMARK  233  A    between atoms: _572  and  _573
REMARK  234  A    between atoms: _572  and  _575
REMARK  235  A    between atoms: _575  and  _576
REMARK  236  A    between atoms: _582  and  _584
REMARK  237  A    between atoms: _584  and  _585
REMARK  238  A    between atoms: _584  and  _587
REMARK  239  A    between atoms: _587  and  _588
REMARK  240  A    between atoms: _588  and  _589
REMARK  241  A    between atoms: _591  and  _593
REMARK  242  A    between atoms: _593  and  _594
REMARK  243  A    between atoms: _593  and  _596
REMARK  244  A    between atoms: _596  and  _597
REMARK  245  A    between atoms: _600  and  _602
REMARK  246  A    between atoms: _602  and  _603
REMARK  247  A    between atoms: _602  and  _605
REMARK  248  A    between atoms: _605  and  _606
REMARK  249  A    between atoms: _606  and  _607
REMARK  250  A    between atoms: _610  and  _612
REMARK  251  A    between atoms: _612  and  _613
REMARK  252  A    between atoms: _612  and  _615
REMARK  253  A    between atoms: _615  and  _616
REMARK  254  A    between atoms: _623  and  _624
REMARK  255  A    between atoms: _629  and  _631
REMARK  256  A    between atoms: _631  and  _632
REMARK  257  A    between atoms: _631  and  _634
REMARK  258  A    between atoms: _634  and  _635
REMARK  259  A    between atoms: _638  and  _640
REMARK  260  A    between atoms: _640  and  _641
REMARK  261  A    between atoms: _640  and  _643
REMARK  262  A    between atoms: _643  and  _644
REMARK                            x       y       z     vdW  Elec       q    Type
REMARK                         _______ _______ _______ _____ _____    ______ ____
ROOT
ATOM      1  CA  TYR A   2      30.985 -63.027 -40.204  0.00  0.00    +0.153 C 
ENDROOT
BRANCH   1   4
ATOM      2  C   LEU A   1      30.580 -62.779 -37.796  0.00  0.00    +0.238 C 
ATOM      3  O   LEU A   1      31.659 -62.221 -37.595  0.00  0.00    -0.274 OA
ATOM      4  N   TYR A   2      30.166 -63.154 -39.002  0.00  0.00    -0.297 N 
ATOM      5  H   TYR A   2      29.212 -63.558 -39.094  0.00  0.00    +0.150 HD
BRANCH   2   6
ATOM      6  CA  LEU A   1      29.625 -63.085 -36.645  0.00  0.00    +0.145 C 
BRANCH   6   7
ATOM      7  N   LEU A   1      30.228 -64.039 -35.729  0.00  0.00    -0.238 NA
ATOM      8  H   LEU A   1      31.081 -63.759 -35.204  0.00  0.00    +0.142 HD
ENDBRANCH   6   7
BRANCH   6   9
ATOM      9  CB  LEU A   1      29.242 -61.806 -35.903  0.00  0.00    +0.026 C 
BRANCH   9  10
ATOM     10  CG  LEU A   1      28.109 -61.955 -34.888  0.00  0.00    +0.002 C 
ATOM     11  CD2 LEU A   1      27.934 -60.682 -34.076  0.00  0.00    +0.000 C 
ATOM     12  CD1 LEU A   1      26.814 -62.322 -35.600  0.00  0.00    +0.000 C 
ENDBRANCH   9  10
ENDBRANCH   6   9
ENDBRANCH   2   6
ENDBRANCH   1   4
BRANCH   1  13
ATOM     13  C   TYR A   2      30.630 -61.747 -40.957  0.00  0.00    +0.241 C 
ATOM     14  N   PHE A   3      31.097 -60.608 -40.456  0.00  0.00    -0.297 N 
ATOM     15  H   PHE A   3      31.685 -60.629 -39.598  0.00  0.00    +0.150 HD
ATOM     16  O   TYR A   2      29.931 -61.790 -41.969  0.00  0.00    -0.273 OA
BRANCH  14  17
ATOM     17  CA  PHE A   3      30.797 -59.328 -41.092  0.00  0.00    +0.153 C 
BRANCH  17  18
ATOM     18  C   PHE A   3      31.421 -59.255 -42.476  0.00  0.00    +0.241 C 
ATOM     19  N   ALA A   4      32.625 -59.800 -42.589  0.00  0.00    -0.298 N 
ATOM     20  H   ALA A   4      33.049 -60.249 -41.752  0.00  0.00    +0.150 HD
ATOM     21  O   PHE A   3      30.824 -58.727 -43.413  0.00  0.00    -0.273 OA
BRANCH  19  22
ATOM     22  CA  ALA A   4      33.377 -59.796 -43.834  0.00  0.00    +0.137 C 
ATOM     23  CB  ALA A   4      33.982 -58.420 -44.094  0.00  0.00    +0.030 C 
BRANCH  22  24
ATOM     24  C   ALA A   4      34.455 -60.863 -43.727  0.00  0.00    +0.227 C 
ATOM     25  O   ALA A   4      34.796 -61.278 -42.618  0.00  0.00    -0.286 OA
ENDBRANCH  22  24
ENDBRANCH  19  22
ENDBRANCH  17  18
BRANCH  17  26
ATOM     26  CB  PHE A   3      31.293 -58.168 -40.234  0.00  0.00    +0.055 C 
BRANCH  26  27
ATOM     27  CG  PHE A   3      30.645 -58.099 -38.891  0.00  0.00    -0.020 A 
ATOM     28  CD2 PHE A   3      31.212 -58.734 -37.807  0.00  0.00    -0.004 A 
ATOM     29  CE2 PHE A   3      30.617 -58.683 -36.570  0.00  0.00    -0.000 A 
ATOM     30  CZ  PHE A   3      29.437 -57.981 -36.396  0.00  0.00    -0.000 A 
ATOM     31  CE1 PHE A   3      28.852 -57.352 -37.480  0.00  0.00    -0.000 A 
ATOM     32  CD1 PHE A   3      29.459 -57.413 -38.717  0.00  0.00    -0.004 A 
ENDBRANCH  26  27
ENDBRANCH  17  26
ENDBRANCH  14  17
ENDBRANCH   1  13
BRANCH   1  33
ATOM     33  CB  TYR A   2      30.775 -64.256 -41.093  0.00  0.00    +0.055 C 
BRANCH  33  34
ATOM     34  CG  TYR A   2      31.754 -64.460 -42.230  0.00  0.00    -0.020 A 
ATOM     35  CD2 TYR A   2      32.889 -65.243 -42.061  0.00  0.00    -0.001 A 
ATOM     36  CE2 TYR A   2      33.775 -65.453 -43.101  0.00  0.00    +0.036 A 
ATOM     37  CZ  TYR A   2      33.525 -64.895 -44.334  0.00  0.00    +0.134 A 
ATOM     38  CE1 TYR A   2      32.400 -64.122 -44.534  0.00  0.00    +0.036 A 
ATOM     39  CD1 TYR A   2      31.518 -63.914 -43.487  0.00  0.00    -0.001 A 
BRANCH  37  40
ATOM     40  OH  TYR A   2      34.405 -65.108 -45.369  0.00  0.00    -0.506 OA
ATOM     41  HH  TYR A   2      35.150 -65.680 -45.055  0.00  0.00    +0.292 HD
ENDBRANCH  37  40
ENDBRANCH  33  34
ENDBRANCH   1  33
TORSDOF 15
REMARK  Name = ../refined-set-2016/4p6w/4p6w_pocket.pdb
REMARK  262 active torsions:
REMARK  status: ('A' for Active; 'I' for Inactive)
REMARK    1  A    between atoms: _1  and  _3
REMARK    2  A    between atoms: _3  and  _4
REMARK    3  A    between atoms: _3  and  _6
REMARK    4  A    between atoms: _6  and  _7
REMARK    5  A    between atoms: _10  and  _12
REMARK    6  A    between atoms: _12  and  _13
REMARK    7  A    between atoms: _12  and  _15
REMARK    8  A    between atoms: _15  and  _16
REMARK    9  A    between atoms: _19  and  _21
REMARK   10  A    between atoms: _21  and  _22
REMARK   11  A    between atoms: _21  and  _24
REMARK   12  A    between atoms: _24  and  _25
REMARK   13  A    between atoms: _35  and  _37
REMARK   14  A    between atoms: _37  and  _38
REMARK   15  A    between atoms: _37  and  _40
REMARK   16  A    between atoms: _40  and  _41
REMARK   17  A    between atoms: _44  and  _46
REMARK   18  A    between atoms: _46  and  _47
REMARK   19  A    between atoms: _46  and  _49
REMARK   20  A    between atoms: _49  and  _50
REMARK   21  A    between atoms: _50  and  _51
REMARK   22  A    between atoms: _53  and  _55
REMARK   23  A    between atoms: _55  and  _56
REMARK   24  A    between atoms: _55  and  _58
REMARK   25  A    between atoms: _58  and  _59
REMARK   26  A    between atoms: _62  and  _64
REMARK   27  A    between atoms: _64  and  _65
REMARK   28  A    between atoms: _64  and  _67
REMARK   29  A    between atoms: _67  and  _68
REMARK   30  A    between atoms: _71  and  _73
REMARK   31  A    between atoms: _73  and  _74
REMARK   32  A    between atoms: _73  and  _76
REMARK   33  A    between atoms: _76  and  _77
REMARK   34  A    between atoms: _80  and  _82
REMARK   35  A    between atoms: _82  and  _83
REMARK   36  A    between atoms: _82  and  _85
REMARK   37  A    between atoms: _85  and  _86
REMARK   38  A    between atoms: _91  and  _93
REMARK   39  A    between atoms: _93  and  _94
REMARK   40  A    between atoms: _93  and  _96
REMARK   41  A    between atoms: _96  and  _97
REMARK   42  A    between atoms: _97  and  _98
REMARK   43  A    between atoms: _100  and  _102
REMARK   44  A    between atoms: _102  and  _103
REMARK   45  A    between atoms: _102  and  _105
REMARK   46  A    between atoms: _105  and  _106
REMARK   47  A    between atoms: _109  and  _111
REMARK   48  A    between atoms: _111  and  _112
REMARK   49  A    between atoms: _114  and  _116
REMARK   50  A    between atoms: _116  and  _117
REMARK   51  A    between atoms: _119  and  _121
REMARK   52  A    between atoms: _121  and  _122
REMARK   53  A    between atoms: _121  and  _124
REMARK   54  A    between atoms: _124  and  _125
REMARK   55  A    between atoms: _125  and  _126
REMARK   56  A    between atoms: _126  and  _127
REMARK   57  A    between atoms: _136  and  _138
REMARK   58  A    between atoms: _138  and  _139
REMARK   59  A    between atoms: _138  and  _141
REMARK   60  A    between atoms: _141  and  _142
REMARK   61  A    between atoms: _142  and  _143
REMARK   62  A    between atoms: _148  and  _150
REMARK   63  A    between atoms: _150  and  _151
REMARK   64  A    between atoms: _150  and  _153
REMARK   65  A    between atoms: _156  and  _158
REMARK   66  A    between atoms: _158  and  _159
REMARK   67  A    between atoms: _158  and  _161
REMARK   68  A    between atoms: _161  and  _162
REMARK   69  A    between atoms: _172  and  _174
REMARK   70  A    between atoms: _174  and  _175
REMARK   71  A    between atoms: _174  and  _177
REMARK   72  A    between atoms: _177  and  _178
REMARK   73  A    between atoms: _178  and  _179
REMARK   74  A    between atoms: _181  and  _183
REMARK   75  A    between atoms: _183  and  _184
REMARK   76  A    between atoms: _187  and  _189
REMARK   77  A    between atoms: _189  and  _190
REMARK   78  A    between atoms: _189  and  _192
REMARK   79  A    between atoms: _192  and  _193
REMARK   80  A    between atoms: _196  and  _198
REMARK   81  A    between atoms: _198  and  _199
REMARK   82  A    between atoms: _198  and  _201
REMARK   83  A    between atoms: _201  and  _202
REMARK   84  A    between atoms: _202  and  _203
REMARK   85  A    between atoms: _205  and  _207
REMARK   86  A    between atoms: _207  and  _208
REMARK   87  A    between atoms: _211  and  _213
REMARK   88  A    between atoms: _213  and  _214
REMARK   89  A    between atoms: _213  and  _216
REMARK   90  A    between atoms: _216  and  _217
REMARK   91  A    between atoms: _223  and  _225
REMARK   92  A    between atoms: _225  and  _226
REMARK   93  A    between atoms: _229  and  _231
REMARK   94  A    between atoms: _231  and  _232
REMARK   95  A    between atoms: _231  and  _234
REMARK   96  A    between atoms: _234  and  _235
REMARK   97  A    between atoms: _238  and  _240
REMARK   98  A    between atoms: _240  and  _241
REMARK   99  A    between atoms: _243  and  _245
REMARK  100  A    between atoms: _245  and  _246
REMARK  101  A    between atoms: _245  and  _248
REMARK  102  A    between atoms: _248  and  _249
REMARK  103  A    between atoms: _249  and  _250
REMARK  104  A    between atoms: _250  and  _251
REMARK  105  A    between atoms: _260  and  _262
REMARK  106  A    between atoms: _262  and  _263
REMARK  107  A    between atoms: _262  and  _265
REMARK  108  A    between atoms: _265  and  _266
REMARK  109  A    between atoms: _268  and  _270
REMARK  110  A    between atoms: _270  and  _271
REMARK  111  A    between atoms: _270  and  _273
REMARK  112  A    between atoms: _273  and  _274
REMARK  113  A    between atoms: _277  and  _279
REMARK  114  A    between atoms: _279  and  _280
REMARK  115  A    between atoms: _279  and  _282
REMARK  116  A    between atoms: _282  and  _283
REMARK  117  A    between atoms: _288  and  _289
REMARK  118  A    between atoms: _291  and  _293
REMARK  119  A    between atoms: _293  and  _294
REMARK  120  A    between atoms: _293  and  _296
REMARK  121  A    between atoms: _296  and  _297
REMARK  122  A    between atoms: _303  and  _305
REMARK  123  A    between atoms: _305  and  _306
REMARK  124  A    between atoms: _309  and  _311
REMARK  125  A    between atoms: _311  and  _312
REMARK  126  A    between atoms: _311  and  _314
REMARK  127  A    between atoms: _314  and  _315
REMARK  128  A    between atoms: _318  and  _320
REMARK  129  A    between atoms: _320  and  _321
REMARK  130  A    between atoms: _320  and  _323
REMARK  131  A    between atoms: _323  and  _324
REMARK  132  A    between atoms: _327  and  _329
REMARK  133  A    between atoms: _329  and  _330
REMARK  134  A    between atoms: _329  and  _332
REMARK  135  A    between atoms: _332  and  _333
REMARK  136  A    between atoms: _333  and  _334
REMARK  137  A    between atoms: _334  and  _335
REMARK  138  A    between atoms: _344  and  _346
REMARK  139  A    between atoms: _346  and  _347
REMARK  140  A    between atoms: _346  and  _349
REMARK  141  A    between atoms: _349  and  _350
REMARK  142  A    between atoms: _350  and  _351
REMARK  143  A    between atoms: _353  and  _355
REMARK  144  A    between atoms: _355  and  _356
REMARK  145  A    between atoms: _355  and  _358
REMARK  146  A    between atoms: _358  and  _359
REMARK  147  A    between atoms: _363  and  _364
REMARK  148  A    between atoms: _369  and  _371
REMARK  149  A    between atoms: _371  and  _372
REMARK  150  A    between atoms: _371  and  _374
REMARK  151  A    between atoms: _376  and  _378
REMARK  152  A    between atoms: _378  and  _379
REMARK  153  A    between atoms: _378  and  _381
REMARK  154  A    between atoms: _381  and  _382
REMARK  155  A    between atoms: _382  and  _383
REMARK  156  A    between atoms: _385  and  _387
REMARK  157  A    between atoms: _387  and  _388
REMARK  158  A    between atoms: _387  and  _390
REMARK  159  A    between atoms: _390  and  _391
REMARK  160  A    between atoms: _396  and  _397
REMARK  161  A    between atoms: _399  and  _401
REMARK  162  A    between atoms: _401  and  _402
REMARK  163  A    between atoms: _401  and  _404
REMARK  164  A    between atoms: _404  and  _405
REMARK  165  A    between atoms: _408  and  _410
REMARK  166  A    between atoms: _410  and  _411
REMARK  167  A    between atoms: _410  and  _413
REMARK  168  A    between atoms: _413  and  _414
REMARK  169  A    between atoms: _414  and  _415
REMARK  170  A    between atoms: _420  and  _422
REMARK  171  A    between atoms: _422  and  _423
REMARK  172  A    between atoms: _422  and  _425
REMARK  173  A    between atoms: _427  and  _429
REMARK  174  A    between atoms: _429  and  _430
REMARK  175  A    between atoms: _429  and  _432
REMARK  176  A    between atoms: _432  and  _433
REMARK  177  A    between atoms: _433  and  _434
REMARK  178  A    between atoms: _434  and  _435
REMARK  179  A    between atoms: _435  and  _436
REMARK  180  A    between atoms: _440  and  _442
REMARK  181  A    between atoms: _442  and  _443
REMARK  182  A    between atoms: _442  and  _445
REMARK  183  A    between atoms: _445  and  _446
REMARK  184  A    between atoms: _451  and  _453
REMARK  185  A    between atoms: _453  and  _454
REMARK  186  A    between atoms: _453  and  _456
REMARK  187  A    between atoms: _456  and  _457
REMARK  188  A    between atoms: _457  and  _458
REMARK  189  A    between atoms: _460  and  _462
REMARK  190  A    between atoms: _462  and  _463
REMARK  191  A    between atoms: _462  and  _465
REMARK  192  A    between atoms: _468  and  _470
REMARK  193  A    between atoms: _470  and  _471
REMARK  194  A    between atoms: _470  and  _473
REMARK  195  A    between atoms: _476  and  _478
REMARK  196  A    between atoms: _478  and  _479
REMARK  197  A    between atoms: _478  and  _481
REMARK  198  A    between atoms: _481  and  _482
REMARK  199  A    between atoms: _487  and  _489
REMARK  200  A    between atoms: _489  and  _490
REMARK  201  A    between atoms: _489  and  _492
REMARK  202  A    between atoms: _492  and  _493
REMARK  203  A    between atoms: _496  and  _498
REMARK  204  A    between atoms: _498  and  _499
REMARK  205  A    between atoms: _498  and  _501
REMARK  206  A    between atoms: _501  and  _502
REMARK  207  A    between atoms: _505  and  _507
REMARK  208  A    between atoms: _507  and  _508
REMARK  209  A    between atoms: _507  and  _510
REMARK  210  A    between atoms: _510  and  _511
REMARK  211  A    between atoms: _516  and  _518
REMARK  212  A    between atoms: _518  and  _519
REMARK  213  A    between atoms: _518  and  _521
REMARK  214  A    between atoms: _521  and  _522
REMARK  215  A    between atoms: _527  and  _528
REMARK  216  A    between atoms: _530  and  _532
REMARK  217  A    between atoms: _532  and  _533
REMARK  218  A    between atoms: _532  and  _535
REMARK  219  A    between atoms: _537  and  _539
REMARK  220  A    between atoms: _539  and  _540
REMARK  221  A    between atoms: _539  and  _542
REMARK  222  A    between atoms: _542  and  _543
REMARK  223  A    between atoms: _549  and  _551
REMARK  224  A    between atoms: _551  and  _552
REMARK  225  A    between atoms: _551  and  _554
REMARK  226  A    between atoms: _554  and  _555
REMARK  227  A    between atoms: _555  and  _556
REMARK  228  A    between atoms: _561  and  _563
REMARK  229  A    between atoms: _563  and  _564
REMARK  230  A    between atoms: _563  and  _566
REMARK  231  A    between atoms: _566  and  _567
REMARK  232  A    between atoms: _570  and  _572
REMARK  233  A    between atoms: _572  and  _573
REMARK  234  A    between atoms: _572  and  _575
REMARK  235  A    between atoms: _575  and  _576
REMARK  236  A    between atoms: _582  and  _584
REMARK  237  A    between atoms: _584  and  _585
REMARK  238  A    between atoms: _584  and  _587
REMARK  239  A    between atoms: _587  and  _588
REMARK  240  A    between atoms: _588  and  _589
REMARK  241  A    between atoms: _591  and  _593
REMARK  242  A    between atoms: _593  and  _594
REMARK  243  A    between atoms: _593  and  _596
REMARK  244  A    between atoms: _596  and  _597
REMARK  245  A    between atoms: _600  and  _602
REMARK  246  A    between atoms: _602  and  _603
REMARK  247  A    between atoms: _602  and  _605
REMARK  248  A    between atoms: _605  and  _606
REMARK  249  A    between atoms: _606  and  _607
REMARK  250  A    between atoms: _610  and  _612
REMARK  251  A    between atoms: _612  and  _613
REMARK  252  A    between atoms: _612  and  _615
REMARK  253  A    between atoms: _615  and  _616
REMARK  254  A    between atoms: _623  and  _624
REMARK  255  A    between atoms: _629  and  _631
REMARK  256  A    between atoms: _631  and  _632
REMARK  257  A    between atoms: _631  and  _634
REMARK  258  A    between atoms: _634  and  _635
REMARK  259  A    between atoms: _638  and  _640
REMARK  260  A    between atoms: _640  and  _641
REMARK  261  A    between atoms: _640  and  _643
REMARK  262  A    between atoms: _643  and  _644
REMARK                            x       y       z     vdW  Elec       q    Type
REMARK                         _______ _______ _______ _____ _____    ______ ____
ROOT
ATOM      1  CA  LEU A   1      36.524 -59.102 -40.117  0.00  0.00    +0.133 C 
ENDROOT
BRANCH   1   2
ATOM      2  N   LEU A   1      36.956 -59.586 -41.426  0.00  0.00    -0.239 NA
ATOM      3  H   LEU A   1      36.270 -60.055 -42.052  0.00  0.00    +0.142 HD
ENDBRANCH   1   2
BRANCH   1   4
ATOM      4  C   LEU A   1      35.493 -60.048 -39.516  0.00  0.00    +0.224 C 
ATOM      5  O   LEU A   1      34.285 -59.840 -39.649  0.00  0.00    -0.287 OA
ENDBRANCH   1   4
BRANCH   1   6
ATOM      6  CB  LEU A   1      35.952 -57.685 -40.206  0.00  0.00    +0.025 C 
BRANCH   6   7
ATOM      7  CG  LEU A   1      36.207 -56.755 -39.010  0.00  0.00    +0.002 C 
ATOM      8  CD2 LEU A   1      35.764 -57.359 -37.682  0.00  0.00    +0.000 C 
ATOM      9  CD1 LEU A   1      35.537 -55.406 -39.221  0.00  0.00    +0.000 C 
ENDBRANCH   6   7
ENDBRANCH   1   6
TORSDOF 4
REMARK  Name = ../refined-set-2016/4p6w/4p6w_pocket.pdb
REMARK  262 active torsions:
REMARK  status: ('A' for Active; 'I' for Inactive)
REMARK    1  A    between atoms: _1  and  _3
REMARK    2  A    between atoms: _3  and  _4
REMARK    3  A    between atoms: _3  and  _6
REMARK    4  A    between atoms: _6  and  _7
REMARK    5  A    between atoms: _10  and  _12
REMARK    6  A    between atoms: _12  and  _13
REMARK    7  A    between atoms: _12  and  _15
REMARK    8  A    between atoms: _15  and  _16
REMARK    9  A    between atoms: _19  and  _21
REMARK   10  A    between atoms: _21  and  _22
REMARK   11  A    between atoms: _21  and  _24
REMARK   12  A    between atoms: _24  and  _25
REMARK   13  A    between atoms: _35  and  _37
REMARK   14  A    between atoms: _37  and  _38
REMARK   15  A    between atoms: _37  and  _40
REMARK   16  A    between atoms: _40  and  _41
REMARK   17  A    between atoms: _44  and  _46
REMARK   18  A    between atoms: _46  and  _47
REMARK   19  A    between atoms: _46  and  _49
REMARK   20  A    between atoms: _49  and  _50
REMARK   21  A    between atoms: _50  and  _51
REMARK   22  A    between atoms: _53  and  _55
REMARK   23  A    between atoms: _55  and  _56
REMARK   24  A    between atoms: _55  and  _58
REMARK   25  A    between atoms: _58  and  _59
REMARK   26  A    between atoms: _62  and  _64
REMARK   27  A    between atoms: _64  and  _65
REMARK   28  A    between atoms: _64  and  _67
REMARK   29  A    between atoms: _67  and  _68
REMARK   30  A    between atoms: _71  and  _73
REMARK   31  A    between atoms: _73  and  _74
REMARK   32  A    between atoms: _73  and  _76
REMARK   33  A    between atoms: _76  and  _77
REMARK   34  A    between atoms: _80  and  _82
REMARK   35  A    between atoms: _82  and  _83
REMARK   36  A    between atoms: _82  and  _85
REMARK   37  A    between atoms: _85  and  _86
REMARK   38  A    between atoms: _91  and  _93
REMARK   39  A    between atoms: _93  and  _94
REMARK   40  A    between atoms: _93  and  _96
REMARK   41  A    between atoms: _96  and  _97
REMARK   42  A    between atoms: _97  and  _98
REMARK   43  A    between atoms: _100  and  _102
REMARK   44  A    between atoms: _102  and  _103
REMARK   45  A    between atoms: _102  and  _105
REMARK   46  A    between atoms: _105  and  _106
REMARK   47  A    between atoms: _109  and  _111
REMARK   48  A    between atoms: _111  and  _112
REMARK   49  A    between atoms: _114  and  _116
REMARK   50  A    between atoms: _116  and  _117
REMARK   51  A    between atoms: _119  and  _121
REMARK   52  A    between atoms: _121  and  _122
REMARK   53  A    between atoms: _121  and  _124
REMARK   54  A    between atoms: _124  and  _125
REMARK   55  A    between atoms: _125  and  _126
REMARK   56  A    between atoms: _126  and  _127
REMARK   57  A    between atoms: _136  and  _138
REMARK   58  A    between atoms: _138  and  _139
REMARK   59  A    between atoms: _138  and  _141
REMARK   60  A    between atoms: _141  and  _142
REMARK   61  A    between atoms: _142  and  _143
REMARK   62  A    between atoms: _148  and  _150
REMARK   63  A    between atoms: _150  and  _151
REMARK   64  A    between atoms: _150  and  _153
REMARK   65  A    between atoms: _156  and  _158
REMARK   66  A    between atoms: _158  and  _159
REMARK   67  A    between atoms: _158  and  _161
REMARK   68  A    between atoms: _161  and  _162
REMARK   69  A    between atoms: _172  and  _174
REMARK   70  A    between atoms: _174  and  _175
REMARK   71  A    between atoms: _174  and  _177
REMARK   72  A    between atoms: _177  and  _178
REMARK   73  A    between atoms: _178  and  _179
REMARK   74  A    between atoms: _181  and  _183
REMARK   75  A    between atoms: _183  and  _184
REMARK   76  A    between atoms: _187  and  _189
REMARK   77  A    between atoms: _189  and  _190
REMARK   78  A    between atoms: _189  and  _192
REMARK   79  A    between atoms: _192  and  _193
REMARK   80  A    between atoms: _196  and  _198
REMARK   81  A    between atoms: _198  and  _199
REMARK   82  A    between atoms: _198  and  _201
REMARK   83  A    between atoms: _201  and  _202
REMARK   84  A    between atoms: _202  and  _203
REMARK   85  A    between atoms: _205  and  _207
REMARK   86  A    between atoms: _207  and  _208
REMARK   87  A    between atoms: _211  and  _213
REMARK   88  A    between atoms: _213  and  _214
REMARK   89  A    between atoms: _213  and  _216
REMARK   90  A    between atoms: _216  and  _217
REMARK   91  A    between atoms: _223  and  _225
REMARK   92  A    between atoms: _225  and  _226
REMARK   93  A    between atoms: _229  and  _231
REMARK   94  A    between atoms: _231  and  _232
REMARK   95  A    between atoms: _231  and  _234
REMARK   96  A    between atoms: _234  and  _235
REMARK   97  A    between atoms: _238  and  _240
REMARK   98  A    between atoms: _240  and  _241
REMARK   99  A    between atoms: _243  and  _245
REMARK  100  A    between atoms: _245  and  _246
REMARK  101  A    between atoms: _245  and  _248
REMARK  102  A    between atoms: _248  and  _249
REMARK  103  A    between atoms: _249  and  _250
REMARK  104  A    between atoms: _250  and  _251
REMARK  105  A    between atoms: _260  and  _262
REMARK  106  A    between atoms: _262  and  _263
REMARK  107  A    between atoms: _262  and  _265
REMARK  108  A    between atoms: _265  and  _266
REMARK  109  A    between atoms: _268  and  _270
REMARK  110  A    between atoms: _270  and  _271
REMARK  111  A    between atoms: _270  and  _273
REMARK  112  A    between atoms: _273  and  _274
REMARK  113  A    between atoms: _277  and  _279
REMARK  114  A    between atoms: _279  and  _280
REMARK  115  A    between atoms: _279  and  _282
REMARK  116  A    between atoms: _282  and  _283
REMARK  117  A    between atoms: _288  and  _289
REMARK  118  A    between atoms: _291  and  _293
REMARK  119  A    between atoms: _293  and  _294
REMARK  120  A    between atoms: _293  and  _296
REMARK  121  A    between atoms: _296  and  _297
REMARK  122  A    between atoms: _303  and  _305
REMARK  123  A    between atoms: _305  and  _306
REMARK  124  A    between atoms: _309  and  _311
REMARK  125  A    between atoms: _311  and  _312
REMARK  126  A    between atoms: _311  and  _314
REMARK  127  A    between atoms: _314  and  _315
REMARK  128  A    between atoms: _318  and  _320
REMARK  129  A    between atoms: _320  and  _321
REMARK  130  A    between atoms: _320  and  _323
REMARK  131  A    between atoms: _323  and  _324
REMARK  132  A    between atoms: _327  and  _329
REMARK  133  A    between atoms: _329  and  _330
REMARK  134  A    between atoms: _329  and  _332
REMARK  135  A    between atoms: _332  and  _333
REMARK  136  A    between atoms: _333  and  _334
REMARK  137  A    between atoms: _334  and  _335
REMARK  138  A    between atoms: _344  and  _346
REMARK  139  A    between atoms: _346  and  _347
REMARK  140  A    between atoms: _346  and  _349
REMARK  141  A    between atoms: _349  and  _350
REMARK  142  A    between atoms: _350  and  _351
REMARK  143  A    between atoms: _353  and  _355
REMARK  144  A    between atoms: _355  and  _356
REMARK  145  A    between atoms: _355  and  _358
REMARK  146  A    between atoms: _358  and  _359
REMARK  147  A    between atoms: _363  and  _364
REMARK  148  A    between atoms: _369  and  _371
REMARK  149  A    between atoms: _371  and  _372
REMARK  150  A    between atoms: _371  and  _374
REMARK  151  A    between atoms: _376  and  _378
REMARK  152  A    between atoms: _378  and  _379
REMARK  153  A    between atoms: _378  and  _381
REMARK  154  A    between atoms: _381  and  _382
REMARK  155  A    between atoms: _382  and  _383
REMARK  156  A    between atoms: _385  and  _387
REMARK  157  A    between atoms: _387  and  _388
REMARK  158  A    between atoms: _387  and  _390
REMARK  159  A    between atoms: _390  and  _391
REMARK  160  A    between atoms: _396  and  _397
REMARK  161  A    between atoms: _399  and  _401
REMARK  162  A    between atoms: _401  and  _402
REMARK  163  A    between atoms: _401  and  _404
REMARK  164  A    between atoms: _404  and  _405
REMARK  165  A    between atoms: _408  and  _410
REMARK  166  A    between atoms: _410  and  _411
REMARK  167  A    between atoms: _410  and  _413
REMARK  168  A    between atoms: _413  and  _414
REMARK  169  A    between atoms: _414  and  _415
REMARK  170  A    between atoms: _420  and  _422
REMARK  171  A    between atoms: _422  and  _423
REMARK  172  A    between atoms: _422  and  _425
REMARK  173  A    between atoms: _427  and  _429
REMARK  174  A    between atoms: _429  and  _430
REMARK  175  A    between atoms: _429  and  _432
REMARK  176  A    between atoms: _432  and  _433
REMARK  177  A    between atoms: _433  and  _434
REMARK  178  A    between atoms: _434  and  _435
REMARK  179  A    between atoms: _435  and  _436
REMARK  180  A    between atoms: _440  and  _442
REMARK  181  A    between atoms: _442  and  _443
REMARK  182  A    between atoms: _442  and  _445
REMARK  183  A    between atoms: _445  and  _446
REMARK  184  A    between atoms: _451  and  _453
REMARK  185  A    between atoms: _453  and  _454
REMARK  186  A    between atoms: _453  and  _456
REMARK  187  A    between atoms: _456  and  _457
REMARK  188  A    between atoms: _457  and  _458
REMARK  189  A    between atoms: _460  and  _462
REMARK  190  A    between atoms: _462  and  _463
REMARK  191  A    between atoms: _462  and  _465
REMARK  192  A    between atoms: _468  and  _470
REMARK  193  A    between atoms: _470  and  _471
REMARK  194  A    between atoms: _470  and  _473
REMARK  195  A    between atoms: _476  and  _478
REMARK  196  A    between atoms: _478  and  _479
REMARK  197  A    between atoms: _478  and  _481
REMARK  198  A    between atoms: _481  and  _482
REMARK  199  A    between atoms: _487  and  _489
REMARK  200  A    between atoms: _489  and  _490
REMARK  201  A    between atoms: _489  and  _492
REMARK  202  A    between atoms: _492  and  _493
REMARK  203  A    between atoms: _496  and  _498
REMARK  204  A    between atoms: _498  and  _499
REMARK  205  A    between atoms: _498  and  _501
REMARK  206  A    between atoms: _501  and  _502
REMARK  207  A    between atoms: _505  and  _507
REMARK  208  A    between atoms: _507  and  _508
REMARK  209  A    between atoms: _507  and  _510
REMARK  210  A    between atoms: _510  and  _511
REMARK  211  A    between atoms: _516  and  _518
REMARK  212  A    between atoms: _518  and  _519
REMARK  213  A    between atoms: _518  and  _521
REMARK  214  A    between atoms: _521  and  _522
REMARK  215  A    between atoms: _527  and  _528
REMARK  216  A    between atoms: _530  and  _532
REMARK  217  A    between atoms: _532  and  _533
REMARK  218  A    between atoms: _532  and  _535
REMARK  219  A    between atoms: _537  and  _539
REMARK  220  A    between atoms: _539  and  _540
REMARK  221  A    between atoms: _539  and  _542
REMARK  222  A    between atoms: _542  and  _543
REMARK  223  A    between atoms: _549  and  _551
REMARK  224  A    between atoms: _551  and  _552
REMARK  225  A    between atoms: _551  and  _554
REMARK  226  A    between atoms: _554  and  _555
REMARK  227  A    between atoms: _555  and  _556
REMARK  228  A    between atoms: _561  and  _563
REMARK  229  A    between atoms: _563  and  _564
REMARK  230  A    between atoms: _563  and  _566
REMARK  231  A    between atoms: _566  and  _567
REMARK  232  A    between atoms: _570  and  _572
REMARK  233  A    between atoms: _572  and  _573
REMARK  234  A    between atoms: _572  and  _575
REMARK  235  A    between atoms: _575  and  _576
REMARK  236  A    between atoms: _582  and  _584
REMARK  237  A    between atoms: _584  and  _585
REMARK  238  A    between atoms: _584  and  _587
REMARK  239  A    between atoms: _587  and  _588
REMARK  240  A    between atoms: _588  and  _589
REMARK  241  A    between atoms: _591  and  _593
REMARK  242  A    between atoms: _593  and  _594
REMARK  243  A    between atoms: _593  and  _596
REMARK  244  A    between atoms: _596  and  _597
REMARK  245  A    between atoms: _600  and  _602
REMARK  246  A    between atoms: _602  and  _603
REMARK  247  A    between atoms: _602  and  _605
REMARK  248  A    between atoms: _605  and  _606
REMARK  249  A    between atoms: _606  and  _607
REMARK  250  A    between atoms: _610  and  _612
REMARK  251  A    between atoms: _612  and  _613
REMARK  252  A    between atoms: _612  and  _615
REMARK  253  A    between atoms: _615  and  _616
REMARK  254  A    between atoms: _623  and  _624
REMARK  255  A    between atoms: _629  and  _631
REMARK  256  A    between atoms: _631  and  _632
REMARK  257  A    between atoms: _631  and  _634
REMARK  258  A    between atoms: _634  and  _635
REMARK  259  A    between atoms: _638  and  _640
REMARK  260  A    between atoms: _640  and  _641
REMARK  261  A    between atoms: _640  and  _643
REMARK  262  A    between atoms: _643  and  _644
REMARK                            x       y       z     vdW  Elec       q    Type
REMARK                         _______ _______ _______ _____ _____    ______ ____
ROOT
ATOM      1  CA  ILE A   1      34.080 -61.668 -34.567  0.00  0.00    +0.133 C 
ENDROOT
BRANCH   1   2
ATOM      2  N   ILE A   1      34.094 -61.810 -36.014  0.00  0.00    -0.239 NA
ATOM      3  H   ILE A   1      33.195 -61.840 -36.537  0.00  0.00    +0.142 HD
ENDBRANCH   1   2
BRANCH   1   4
ATOM      4  C   ILE A   1      33.652 -62.972 -33.903  0.00  0.00    +0.224 C 
ATOM      5  O   ILE A   1      32.488 -63.373 -33.971  0.00  0.00    -0.287 OA
ENDBRANCH   1   4
BRANCH   1   6
ATOM      6  CB  ILE A   1      33.162 -60.517 -34.129  0.00  0.00    +0.023 C 
ATOM      7  CG2 ILE A   1      33.009 -60.498 -32.617  0.00  0.00    +0.002 C 
BRANCH   6   8
ATOM      8  CG1 ILE A   1      33.740 -59.190 -34.626  0.00  0.00    +0.002 C 
ATOM      9  CD1 ILE A   1      32.945 -57.982 -34.224  0.00  0.00    +0.000 C 
ENDBRANCH   6   8
ENDBRANCH   1   6
TORSDOF 4
REMARK  Name = ../refined-set-2016/4p6w/4p6w_pocket.pdb
REMARK  262 active torsions:
REMARK  status: ('A' for Active; 'I' for Inactive)
REMARK    1  A    between atoms: _1  and  _3
REMARK    2  A    between atoms: _3  and  _4
REMARK    3  A    between atoms: _3  and  _6
REMARK    4  A    between atoms: _6  and  _7
REMARK    5  A    between atoms: _10  and  _12
REMARK    6  A    between atoms: _12  and  _13
REMARK    7  A    between atoms: _12  and  _15
REMARK    8  A    between atoms: _15  and  _16
REMARK    9  A    between atoms: _19  and  _21
REMARK   10  A    between atoms: _21  and  _22
REMARK   11  A    between atoms: _21  and  _24
REMARK   12  A    between atoms: _24  and  _25
REMARK   13  A    between atoms: _35  and  _37
REMARK   14  A    between atoms: _37  and  _38
REMARK   15  A    between atoms: _37  and  _40
REMARK   16  A    between atoms: _40  and  _41
REMARK   17  A    between atoms: _44  and  _46
REMARK   18  A    between atoms: _46  and  _47
REMARK   19  A    between atoms: _46  and  _49
REMARK   20  A    between atoms: _49  and  _50
REMARK   21  A    between atoms: _50  and  _51
REMARK   22  A    between atoms: _53  and  _55
REMARK   23  A    between atoms: _55  and  _56
REMARK   24  A    between atoms: _55  and  _58
REMARK   25  A    between atoms: _58  and  _59
REMARK   26  A    between atoms: _62  and  _64
REMARK   27  A    between atoms: _64  and  _65
REMARK   28  A    between atoms: _64  and  _67
REMARK   29  A    between atoms: _67  and  _68
REMARK   30  A    between atoms: _71  and  _73
REMARK   31  A    between atoms: _73  and  _74
REMARK   32  A    between atoms: _73  and  _76
REMARK   33  A    between atoms: _76  and  _77
REMARK   34  A    between atoms: _80  and  _82
REMARK   35  A    between atoms: _82  and  _83
REMARK   36  A    between atoms: _82  and  _85
REMARK   37  A    between atoms: _85  and  _86
REMARK   38  A    between atoms: _91  and  _93
REMARK   39  A    between atoms: _93  and  _94
REMARK   40  A    between atoms: _93  and  _96
REMARK   41  A    between atoms: _96  and  _97
REMARK   42  A    between atoms: _97  and  _98
REMARK   43  A    between atoms: _100  and  _102
REMARK   44  A    between atoms: _102  and  _103
REMARK   45  A    between atoms: _102  and  _105
REMARK   46  A    between atoms: _105  and  _106
REMARK   47  A    between atoms: _109  and  _111
REMARK   48  A    between atoms: _111  and  _112
REMARK   49  A    between atoms: _114  and  _116
REMARK   50  A    between atoms: _116  and  _117
REMARK   51  A    between atoms: _119  and  _121
REMARK   52  A    between atoms: _121  and  _122
REMARK   53  A    between atoms: _121  and  _124
REMARK   54  A    between atoms: _124  and  _125
REMARK   55  A    between atoms: _125  and  _126
REMARK   56  A    between atoms: _126  and  _127
REMARK   57  A    between atoms: _136  and  _138
REMARK   58  A    between atoms: _138  and  _139
REMARK   59  A    between atoms: _138  and  _141
REMARK   60  A    between atoms: _141  and  _142
REMARK   61  A    between atoms: _142  and  _143
REMARK   62  A    between atoms: _148  and  _150
REMARK   63  A    between atoms: _150  and  _151
REMARK   64  A    between atoms: _150  and  _153
REMARK   65  A    between atoms: _156  and  _158
REMARK   66  A    between atoms: _158  and  _159
REMARK   67  A    between atoms: _158  and  _161
REMARK   68  A    between atoms: _161  and  _162
REMARK   69  A    between atoms: _172  and  _174
REMARK   70  A    between atoms: _174  and  _175
REMARK   71  A    between atoms: _174  and  _177
REMARK   72  A    between atoms: _177  and  _178
REMARK   73  A    between atoms: _178  and  _179
REMARK   74  A    between atoms: _181  and  _183
REMARK   75  A    between atoms: _183  and  _184
REMARK   76  A    between atoms: _187  and  _189
REMARK   77  A    between atoms: _189  and  _190
REMARK   78  A    between atoms: _189  and  _192
REMARK   79  A    between atoms: _192  and  _193
REMARK   80  A    between atoms: _196  and  _198
REMARK   81  A    between atoms: _198  and  _199
REMARK   82  A    between atoms: _198  and  _201
REMARK   83  A    between atoms: _201  and  _202
REMARK   84  A    between atoms: _202  and  _203
REMARK   85  A    between atoms: _205  and  _207
REMARK   86  A    between atoms: _207  and  _208
REMARK   87  A    between atoms: _211  and  _213
REMARK   88  A    between atoms: _213  and  _214
REMARK   89  A    between atoms: _213  and  _216
REMARK   90  A    between atoms: _216  and  _217
REMARK   91  A    between atoms: _223  and  _225
REMARK   92  A    between atoms: _225  and  _226
REMARK   93  A    between atoms: _229  and  _231
REMARK   94  A    between atoms: _231  and  _232
REMARK   95  A    between atoms: _231  and  _234
REMARK   96  A    between atoms: _234  and  _235
REMARK   97  A    between atoms: _238  and  _240
REMARK   98  A    between atoms: _240  and  _241
REMARK   99  A    between atoms: _243  and  _245
REMARK  100  A    between atoms: _245  and  _246
REMARK  101  A    between atoms: _245  and  _248
REMARK  102  A    between atoms: _248  and  _249
REMARK  103  A    between atoms: _249  and  _250
REMARK  104  A    between atoms: _250  and  _251
REMARK  105  A    between atoms: _260  and  _262
REMARK  106  A    between atoms: _262  and  _263
REMARK  107  A    between atoms: _262  and  _265
REMARK  108  A    between atoms: _265  and  _266
REMARK  109  A    between atoms: _268  and  _270
REMARK  110  A    between atoms: _270  and  _271
REMARK  111  A    between atoms: _270  and  _273
REMARK  112  A    between atoms: _273  and  _274
REMARK  113  A    between atoms: _277  and  _279
REMARK  114  A    between atoms: _279  and  _280
REMARK  115  A    between atoms: _279  and  _282
REMARK  116  A    between atoms: _282  and  _283
REMARK  117  A    between atoms: _288  and  _289
REMARK  118  A    between atoms: _291  and  _293
REMARK  119  A    between atoms: _293  and  _294
REMARK  120  A    between atoms: _293  and  _296
REMARK  121  A    between atoms: _296  and  _297
REMARK  122  A    between atoms: _303  and  _305
REMARK  123  A    between atoms: _305  and  _306
REMARK  124  A    between atoms: _309  and  _311
REMARK  125  A    between atoms: _311  and  _312
REMARK  126  A    between atoms: _311  and  _314
REMARK  127  A    between atoms: _314  and  _315
REMARK  128  A    between atoms: _318  and  _320
REMARK  129  A    between atoms: _320  and  _321
REMARK  130  A    between atoms: _320  and  _323
REMARK  131  A    between atoms: _323  and  _324
REMARK  132  A    between atoms: _327  and  _329
REMARK  133  A    between atoms: _329  and  _330
REMARK  134  A    between atoms: _329  and  _332
REMARK  135  A    between atoms: _332  and  _333
REMARK  136  A    between atoms: _333  and  _334
REMARK  137  A    between atoms: _334  and  _335
REMARK  138  A    between atoms: _344  and  _346
REMARK  139  A    between atoms: _346  and  _347
REMARK  140  A    between atoms: _346  and  _349
REMARK  141  A    between atoms: _349  and  _350
REMARK  142  A    between atoms: _350  and  _351
REMARK  143  A    between atoms: _353  and  _355
REMARK  144  A    between atoms: _355  and  _356
REMARK  145  A    between atoms: _355  and  _358
REMARK  146  A    between atoms: _358  and  _359
REMARK  147  A    between atoms: _363  and  _364
REMARK  148  A    between atoms: _369  and  _371
REMARK  149  A    between atoms: _371  and  _372
REMARK  150  A    between atoms: _371  and  _374
REMARK  151  A    between atoms: _376  and  _378
REMARK  152  A    between atoms: _378  and  _379
REMARK  153  A    between atoms: _378  and  _381
REMARK  154  A    between atoms: _381  and  _382
REMARK  155  A    between atoms: _382  and  _383
REMARK  156  A    between atoms: _385  and  _387
REMARK  157  A    between atoms: _387  and  _388
REMARK  158  A    between atoms: _387  and  _390
REMARK  159  A    between atoms: _390  and  _391
REMARK  160  A    between atoms: _396  and  _397
REMARK  161  A    between atoms: _399  and  _401
REMARK  162  A    between atoms: _401  and  _402
REMARK  163  A    between atoms: _401  and  _404
REMARK  164  A    between atoms: _404  and  _405
REMARK  165  A    between atoms: _408  and  _410
REMARK  166  A    between atoms: _410  and  _411
REMARK  167  A    between atoms: _410  and  _413
REMARK  168  A    between atoms: _413  and  _414
REMARK  169  A    between atoms: _414  and  _415
REMARK  170  A    between atoms: _420  and  _422
REMARK  171  A    between atoms: _422  and  _423
REMARK  172  A    between atoms: _422  and  _425
REMARK  173  A    between atoms: _427  and  _429
REMARK  174  A    between atoms: _429  and  _430
REMARK  175  A    between atoms: _429  and  _432
REMARK  176  A    between atoms: _432  and  _433
REMARK  177  A    between atoms: _433  and  _434
REMARK  178  A    between atoms: _434  and  _435
REMARK  179  A    between atoms: _435  and  _436
REMARK  180  A    between atoms: _440  and  _442
REMARK  181  A    between atoms: _442  and  _443
REMARK  182  A    between atoms: _442  and  _445
REMARK  183  A    between atoms: _445  and  _446
REMARK  184  A    between atoms: _451  and  _453
REMARK  185  A    between atoms: _453  and  _454
REMARK  186  A    between atoms: _453  and  _456
REMARK  187  A    between atoms: _456  and  _457
REMARK  188  A    between atoms: _457  and  _458
REMARK  189  A    between atoms: _460  and  _462
REMARK  190  A    between atoms: _462  and  _463
REMARK  191  A    between atoms: _462  and  _465
REMARK  192  A    between atoms: _468  and  _470
REMARK  193  A    between atoms: _470  and  _471
REMARK  194  A    between atoms: _470  and  _473
REMARK  195  A    between atoms: _476  and  _478
REMARK  196  A    between atoms: _478  and  _479
REMARK  197  A    between atoms: _478  and  _481
REMARK  198  A    between atoms: _481  and  _482
REMARK  199  A    between atoms: _487  and  _489
REMARK  200  A    between atoms: _489  and  _490
REMARK  201  A    between atoms: _489  and  _492
REMARK  202  A    between atoms: _492  and  _493
REMARK  203  A    between atoms: _496  and  _498
REMARK  204  A    between atoms: _498  and  _499
REMARK  205  A    between atoms: _498  and  _501
REMARK  206  A    between atoms: _501  and  _502
REMARK  207  A    between atoms: _505  and  _507
REMARK  208  A    between atoms: _507  and  _508
REMARK  209  A    between atoms: _507  and  _510
REMARK  210  A    between atoms: _510  and  _511
REMARK  211  A    between atoms: _516  and  _518
REMARK  212  A    between atoms: _518  and  _519
REMARK  213  A    between atoms: _518  and  _521
REMARK  214  A    between atoms: _521  and  _522
REMARK  215  A    between atoms: _527  and  _528
REMARK  216  A    between atoms: _530  and  _532
REMARK  217  A    between atoms: _532  and  _533
REMARK  218  A    between atoms: _532  and  _535
REMARK  219  A    between atoms: _537  and  _539
REMARK  220  A    between atoms: _539  and  _540
REMARK  221  A    between atoms: _539  and  _542
REMARK  222  A    between atoms: _542  and  _543
REMARK  223  A    between atoms: _549  and  _551
REMARK  224  A    between atoms: _551  and  _552
REMARK  225  A    between atoms: _551  and  _554
REMARK  226  A    between atoms: _554  and  _555
REMARK  227  A    between atoms: _555  and  _556
REMARK  228  A    between atoms: _561  and  _563
REMARK  229  A    between atoms: _563  and  _564
REMARK  230  A    between atoms: _563  and  _566
REMARK  231  A    between atoms: _566  and  _567
REMARK  232  A    between atoms: _570  and  _572
REMARK  233  A    between atoms: _572  and  _573
REMARK  234  A    between atoms: _572  and  _575
REMARK  235  A    between atoms: _575  and  _576
REMARK  236  A    between atoms: _582  and  _584
REMARK  237  A    between atoms: _584  and  _585
REMARK  238  A    between atoms: _584  and  _587
REMARK  239  A    between atoms: _587  and  _588
REMARK  240  A    between atoms: _588  and  _589
REMARK  241  A    between atoms: _591  and  _593
REMARK  242  A    between atoms: _593  and  _594
REMARK  243  A    between atoms: _593  and  _596
REMARK  244  A    between atoms: _596  and  _597
REMARK  245  A    between atoms: _600  and  _602
REMARK  246  A    between atoms: _602  and  _603
REMARK  247  A    between atoms: _602  and  _605
REMARK  248  A    between atoms: _605  and  _606
REMARK  249  A    between atoms: _606  and  _607
REMARK  250  A    between atoms: _610  and  _612
REMARK  251  A    between atoms: _612  and  _613
REMARK  252  A    between atoms: _612  and  _615
REMARK  253  A    between atoms: _615  and  _616
REMARK  254  A    between atoms: _623  and  _624
REMARK  255  A    between atoms: _629  and  _631
REMARK  256  A    between atoms: _631  and  _632
REMARK  257  A    between atoms: _631  and  _634
REMARK  258  A    between atoms: _634  and  _635
REMARK  259  A    between atoms: _638  and  _640
REMARK  260  A    between atoms: _640  and  _641
REMARK  261  A    between atoms: _640  and  _643
REMARK  262  A    between atoms: _643  and  _644
REMARK                            x       y       z     vdW  Elec       q    Type
REMARK                         _______ _______ _______ _____ _____    ______ ____
ROOT
ATOM      1  CA  ARG A   1      36.436 -60.648 -29.736  0.00  0.00    +0.145 C 
ENDROOT
BRANCH   1   2
ATOM      2  C   ARG A   1      35.154 -60.061 -29.161  0.00  0.00    +0.238 C 
ATOM      3  N   MET A   2      34.186 -60.924 -28.880  0.00  0.00    -0.298 N 
ATOM      4  H   MET A   2      34.337 -61.936 -29.067  0.00  0.00    +0.150 HD
ATOM      5  O   ARG A   1      35.046 -58.850 -28.973  0.00  0.00    -0.274 OA
BRANCH   3   6
ATOM      6  CA  MET A   2      32.918 -60.487 -28.316  0.00  0.00    +0.138 C 
BRANCH   6   7
ATOM      7  C   MET A   2      33.073 -59.903 -26.914  0.00  0.00    +0.227 C 
ATOM      8  O   MET A   2      32.206 -59.162 -26.449  0.00  0.00    -0.286 OA
ENDBRANCH   6   7
BRANCH   6   9
ATOM      9  CB  MET A   2      31.925 -61.648 -28.287  0.00  0.00    +0.039 C 
BRANCH   9  10
ATOM     10  CG  MET A   2      30.900 -61.586 -29.392  0.00  0.00    +0.060 C 
BRANCH  10  11
ATOM     11  SD  MET A   2      29.849 -63.043 -29.452  0.00  0.00    -0.139 S 
ATOM     12  CE  MET A   2      30.622 -63.927 -30.797  0.00  0.00    +0.069 C 
ENDBRANCH  10  11
ENDBRANCH   9  10
ENDBRANCH   6   9
ENDBRANCH   3   6
ENDBRANCH   1   2
BRANCH   1  13
ATOM     13  N   ARG A   1      36.606 -62.059 -29.400  0.00  0.00    -0.238 NA
ATOM     14  H   ARG A   1      36.664 -62.758 -30.168  0.00  0.00    +0.142 HD
ENDBRANCH   1  13
BRANCH   1  15
ATOM     15  CB  ARG A   1      36.453 -60.460 -31.252  0.00  0.00    +0.030 C 
BRANCH  15  16
ATOM     16  CG  ARG A   1      37.779 -59.976 -31.796  0.00  0.00    +0.045 C 
BRANCH  16  17
ATOM     17  CD  ARG A   1      37.781 -59.984 -33.311  0.00  0.00    +0.174 C 
BRANCH  17  18
ATOM     18  NE  ARG A   1      38.935 -59.273 -33.849  0.00  0.00    -0.265 N 
ATOM     19  HE  ARG A   1      39.500 -58.695 -33.194  0.00  0.00    +0.259 HD
ATOM     20  CZ  ARG A   1      39.309 -59.317 -35.122  0.00  0.00    +0.342 C 
ATOM     21  NH2 ARG A   1      40.373 -58.635 -35.524  0.00  0.00    -0.292 N 
ATOM     22 HH21 ARG A   1      40.914 -58.066 -34.842  0.00  0.00    +0.255 HD
ATOM     23 HH22 ARG A   1      40.666 -58.669 -36.521  0.00  0.00    +0.255 HD
ATOM     24  NH1 ARG A   1      38.622 -60.046 -35.991  0.00  0.00    -0.292 N 
ATOM     25 HH11 ARG A   1      37.790 -60.584 -35.675  0.00  0.00    +0.255 HD
ATOM     26 HH12 ARG A   1      38.916 -60.080 -36.988  0.00  0.00    +0.255 HD
ENDBRANCH  17  18
ENDBRANCH  16  17
ENDBRANCH  15  16
ENDBRANCH   1  15
TORSDOF 11
REMARK  Name = ../refined-set-2016/4p6w/4p6w_pocket.pdb
REMARK  262 active torsions:
REMARK  status: ('A' for Active; 'I' for Inactive)
REMARK    1  A    between atoms: _1  and  _3
REMARK    2  A    between atoms: _3  and  _4
REMARK    3  A    between atoms: _3  and  _6
REMARK    4  A    between atoms: _6  and  _7
REMARK    5  A    between atoms: _10  and  _12
REMARK    6  A    between atoms: _12  and  _13
REMARK    7  A    between atoms: _12  and  _15
REMARK    8  A    between atoms: _15  and  _16
REMARK    9  A    between atoms: _19  and  _21
REMARK   10  A    between atoms: _21  and  _22
REMARK   11  A    between atoms: _21  and  _24
REMARK   12  A    between atoms: _24  and  _25
REMARK   13  A    between atoms: _35  and  _37
REMARK   14  A    between atoms: _37  and  _38
REMARK   15  A    between atoms: _37  and  _40
REMARK   16  A    between atoms: _40  and  _41
REMARK   17  A    between atoms: _44  and  _46
REMARK   18  A    between atoms: _46  and  _47
REMARK   19  A    between atoms: _46  and  _49
REMARK   20  A    between atoms: _49  and  _50
REMARK   21  A    between atoms: _50  and  _51
REMARK   22  A    between atoms: _53  and  _55
REMARK   23  A    between atoms: _55  and  _56
REMARK   24  A    between atoms: _55  and  _58
REMARK   25  A    between atoms: _58  and  _59
REMARK   26  A    between atoms: _62  and  _64
REMARK   27  A    between atoms: _64  and  _65
REMARK   28  A    between atoms: _64  and  _67
REMARK   29  A    between atoms: _67  and  _68
REMARK   30  A    between atoms: _71  and  _73
REMARK   31  A    between atoms: _73  and  _74
REMARK   32  A    between atoms: _73  and  _76
REMARK   33  A    between atoms: _76  and  _77
REMARK   34  A    between atoms: _80  and  _82
REMARK   35  A    between atoms: _82  and  _83
REMARK   36  A    between atoms: _82  and  _85
REMARK   37  A    between atoms: _85  and  _86
REMARK   38  A    between atoms: _91  and  _93
REMARK   39  A    between atoms: _93  and  _94
REMARK   40  A    between atoms: _93  and  _96
REMARK   41  A    between atoms: _96  and  _97
REMARK   42  A    between atoms: _97  and  _98
REMARK   43  A    between atoms: _100  and  _102
REMARK   44  A    between atoms: _102  and  _103
REMARK   45  A    between atoms: _102  and  _105
REMARK   46  A    between atoms: _105  and  _106
REMARK   47  A    between atoms: _109  and  _111
REMARK   48  A    between atoms: _111  and  _112
REMARK   49  A    between atoms: _114  and  _116
REMARK   50  A    between atoms: _116  and  _117
REMARK   51  A    between atoms: _119  and  _121
REMARK   52  A    between atoms: _121  and  _122
REMARK   53  A    between atoms: _121  and  _124
REMARK   54  A    between atoms: _124  and  _125
REMARK   55  A    between atoms: _125  and  _126
REMARK   56  A    between atoms: _126  and  _127
REMARK   57  A    between atoms: _136  and  _138
REMARK   58  A    between atoms: _138  and  _139
REMARK   59  A    between atoms: _138  and  _141
REMARK   60  A    between atoms: _141  and  _142
REMARK   61  A    between atoms: _142  and  _143
REMARK   62  A    between atoms: _148  and  _150
REMARK   63  A    between atoms: _150  and  _151
REMARK   64  A    between atoms: _150  and  _153
REMARK   65  A    between atoms: _156  and  _158
REMARK   66  A    between atoms: _158  and  _159
REMARK   67  A    between atoms: _158  and  _161
REMARK   68  A    between atoms: _161  and  _162
REMARK   69  A    between atoms: _172  and  _174
REMARK   70  A    between atoms: _174  and  _175
REMARK   71  A    between atoms: _174  and  _177
REMARK   72  A    between atoms: _177  and  _178
REMARK   73  A    between atoms: _178  and  _179
REMARK   74  A    between atoms: _181  and  _183
REMARK   75  A    between atoms: _183  and  _184
REMARK   76  A    between atoms: _187  and  _189
REMARK   77  A    between atoms: _189  and  _190
REMARK   78  A    between atoms: _189  and  _192
REMARK   79  A    between atoms: _192  and  _193
REMARK   80  A    between atoms: _196  and  _198
REMARK   81  A    between atoms: _198  and  _199
REMARK   82  A    between atoms: _198  and  _201
REMARK   83  A    between atoms: _201  and  _202
REMARK   84  A    between atoms: _202  and  _203
REMARK   85  A    between atoms: _205  and  _207
REMARK   86  A    between atoms: _207  and  _208
REMARK   87  A    between atoms: _211  and  _213
REMARK   88  A    between atoms: _213  and  _214
REMARK   89  A    between atoms: _213  and  _216
REMARK   90  A    between atoms: _216  and  _217
REMARK   91  A    between atoms: _223  and  _225
REMARK   92  A    between atoms: _225  and  _226
REMARK   93  A    between atoms: _229  and  _231
REMARK   94  A    between atoms: _231  and  _232
REMARK   95  A    between atoms: _231  and  _234
REMARK   96  A    between atoms: _234  and  _235
REMARK   97  A    between atoms: _238  and  _240
REMARK   98  A    between atoms: _240  and  _241
REMARK   99  A    between atoms: _243  and  _245
REMARK  100  A    between atoms: _245  and  _246
REMARK  101  A    between atoms: _245  and  _248
REMARK  102  A    between atoms: _248  and  _249
REMARK  103  A    between atoms: _249  and  _250
REMARK  104  A    between atoms: _250  and  _251
REMARK  105  A    between atoms: _260  and  _262
REMARK  106  A    between atoms: _262  and  _263
REMARK  107  A    between atoms: _262  and  _265
REMARK  108  A    between atoms: _265  and  _266
REMARK  109  A    between atoms: _268  and  _270
REMARK  110  A    between atoms: _270  and  _271
REMARK  111  A    between atoms: _270  and  _273
REMARK  112  A    between atoms: _273  and  _274
REMARK  113  A    between atoms: _277  and  _279
REMARK  114  A    between atoms: _279  and  _280
REMARK  115  A    between atoms: _279  and  _282
REMARK  116  A    between atoms: _282  and  _283
REMARK  117  A    between atoms: _288  and  _289
REMARK  118  A    between atoms: _291  and  _293
REMARK  119  A    between atoms: _293  and  _294
REMARK  120  A    between atoms: _293  and  _296
REMARK  121  A    between atoms: _296  and  _297
REMARK  122  A    between atoms: _303  and  _305
REMARK  123  A    between atoms: _305  and  _306
REMARK  124  A    between atoms: _309  and  _311
REMARK  125  A    between atoms: _311  and  _312
REMARK  126  A    between atoms: _311  and  _314
REMARK  127  A    between atoms: _314  and  _315
REMARK  128  A    between atoms: _318  and  _320
REMARK  129  A    between atoms: _320  and  _321
REMARK  130  A    between atoms: _320  and  _323
REMARK  131  A    between atoms: _323  and  _324
REMARK  132  A    between atoms: _327  and  _329
REMARK  133  A    between atoms: _329  and  _330
REMARK  134  A    between atoms: _329  and  _332
REMARK  135  A    between atoms: _332  and  _333
REMARK  136  A    between atoms: _333  and  _334
REMARK  137  A    between atoms: _334  and  _335
REMARK  138  A    between atoms: _344  and  _346
REMARK  139  A    between atoms: _346  and  _347
REMARK  140  A    between atoms: _346  and  _349
REMARK  141  A    between atoms: _349  and  _350
REMARK  142  A    between atoms: _350  and  _351
REMARK  143  A    between atoms: _353  and  _355
REMARK  144  A    between atoms: _355  and  _356
REMARK  145  A    between atoms: _355  and  _358
REMARK  146  A    between atoms: _358  and  _359
REMARK  147  A    between atoms: _363  and  _364
REMARK  148  A    between atoms: _369  and  _371
REMARK  149  A    between atoms: _371  and  _372
REMARK  150  A    between atoms: _371  and  _374
REMARK  151  A    between atoms: _376  and  _378
REMARK  152  A    between atoms: _378  and  _379
REMARK  153  A    between atoms: _378  and  _381
REMARK  154  A    between atoms: _381  and  _382
REMARK  155  A    between atoms: _382  and  _383
REMARK  156  A    between atoms: _385  and  _387
REMARK  157  A    between atoms: _387  and  _388
REMARK  158  A    between atoms: _387  and  _390
REMARK  159  A    between atoms: _390  and  _391
REMARK  160  A    between atoms: _396  and  _397
REMARK  161  A    between atoms: _399  and  _401
REMARK  162  A    between atoms: _401  and  _402
REMARK  163  A    between atoms: _401  and  _404
REMARK  164  A    between atoms: _404  and  _405
REMARK  165  A    between atoms: _408  and  _410
REMARK  166  A    between atoms: _410  and  _411
REMARK  167  A    between atoms: _410  and  _413
REMARK  168  A    between atoms: _413  and  _414
REMARK  169  A    between atoms: _414  and  _415
REMARK  170  A    between atoms: _420  and  _422
REMARK  171  A    between atoms: _422  and  _423
REMARK  172  A    between atoms: _422  and  _425
REMARK  173  A    between atoms: _427  and  _429
REMARK  174  A    between atoms: _429  and  _430
REMARK  175  A    between atoms: _429  and  _432
REMARK  176  A    between atoms: _432  and  _433
REMARK  177  A    between atoms: _433  and  _434
REMARK  178  A    between atoms: _434  and  _435
REMARK  179  A    between atoms: _435  and  _436
REMARK  180  A    between atoms: _440  and  _442
REMARK  181  A    between atoms: _442  and  _443
REMARK  182  A    between atoms: _442  and  _445
REMARK  183  A    between atoms: _445  and  _446
REMARK  184  A    between atoms: _451  and  _453
REMARK  185  A    between atoms: _453  and  _454
REMARK  186  A    between atoms: _453  and  _456
REMARK  187  A    between atoms: _456  and  _457
REMARK  188  A    between atoms: _457  and  _458
REMARK  189  A    between atoms: _460  and  _462
REMARK  190  A    between atoms: _462  and  _463
REMARK  191  A    between atoms: _462  and  _465
REMARK  192  A    between atoms: _468  and  _470
REMARK  193  A    between atoms: _470  and  _471
REMARK  194  A    between atoms: _470  and  _473
REMARK  195  A    between atoms: _476  and  _478
REMARK  196  A    between atoms: _478  and  _479
REMARK  197  A    between atoms: _478  and  _481
REMARK  198  A    between atoms: _481  and  _482
REMARK  199  A    between atoms: _487  and  _489
REMARK  200  A    between atoms: _489  and  _490
REMARK  201  A    between atoms: _489  and  _492
REMARK  202  A    between atoms: _492  and  _493
REMARK  203  A    between atoms: _496  and  _498
REMARK  204  A    between atoms: _498  and  _499
REMARK  205  A    between atoms: _498  and  _501
REMARK  206  A    between atoms: _501  and  _502
REMARK  207  A    between atoms: _505  and  _507
REMARK  208  A    between atoms: _507  and  _508
REMARK  209  A    between atoms: _507  and  _510
REMARK  210  A    between atoms: _510  and  _511
REMARK  211  A    between atoms: _516  and  _518
REMARK  212  A    between atoms: _518  and  _519
REMARK  213  A    between atoms: _518  and  _521
REMARK  214  A    between atoms: _521  and  _522
REMARK  215  A    between atoms: _527  and  _528
REMARK  216  A    between atoms: _530  and  _532
REMARK  217  A    between atoms: _532  and  _533
REMARK  218  A    between atoms: _532  and  _535
REMARK  219  A    between atoms: _537  and  _539
REMARK  220  A    between atoms: _539  and  _540
REMARK  221  A    between atoms: _539  and  _542
REMARK  222  A    between atoms: _542  and  _543
REMARK  223  A    between atoms: _549  and  _551
REMARK  224  A    between atoms: _551  and  _552
REMARK  225  A    between atoms: _551  and  _554
REMARK  226  A    between atoms: _554  and  _555
REMARK  227  A    between atoms: _555  and  _556
REMARK  228  A    between atoms: _561  and  _563
REMARK  229  A    between atoms: _563  and  _564
REMARK  230  A    between atoms: _563  and  _566
REMARK  231  A    between atoms: _566  and  _567
REMARK  232  A    between atoms: _570  and  _572
REMARK  233  A    between atoms: _572  and  _573
REMARK  234  A    between atoms: _572  and  _575
REMARK  235  A    between atoms: _575  and  _576
REMARK  236  A    between atoms: _582  and  _584
REMARK  237  A    between atoms: _584  and  _585
REMARK  238  A    between atoms: _584  and  _587
REMARK  239  A    between atoms: _587  and  _588
REMARK  240  A    between atoms: _588  and  _589
REMARK  241  A    between atoms: _591  and  _593
REMARK  242  A    between atoms: _593  and  _594
REMARK  243  A    between atoms: _593  and  _596
REMARK  244  A    between atoms: _596  and  _597
REMARK  245  A    between atoms: _600  and  _602
REMARK  246  A    between atoms: _602  and  _603
REMARK  247  A    between atoms: _602  and  _605
REMARK  248  A    between atoms: _605  and  _606
REMARK  249  A    between atoms: _606  and  _607
REMARK  250  A    between atoms: _610  and  _612
REMARK  251  A    between atoms: _612  and  _613
REMARK  252  A    between atoms: _612  and  _615
REMARK  253  A    between atoms: _615  and  _616
REMARK  254  A    between atoms: _623  and  _624
REMARK  255  A    between atoms: _629  and  _631
REMARK  256  A    between atoms: _631  and  _632
REMARK  257  A    between atoms: _631  and  _634
REMARK  258  A    between atoms: _634  and  _635
REMARK  259  A    between atoms: _638  and  _640
REMARK  260  A    between atoms: _640  and  _641
REMARK  261  A    between atoms: _640  and  _643
REMARK  262  A    between atoms: _643  and  _644
REMARK                            x       y       z     vdW  Elec       q    Type
REMARK                         _______ _______ _______ _____ _____    ______ ____
ROOT
ATOM      1  C   ASP A   6      24.565 -57.219 -27.321  0.00  0.00    +0.241 C 
ATOM      2  O   ASP A   6      23.612 -57.851 -27.785  0.00  0.00    -0.273 OA
ATOM      3  N   GLN A   7      25.299 -56.379 -28.044  0.00  0.00    -0.297 N 
ATOM      4  H   GLN A   7      26.093 -55.881 -27.593  0.00  0.00    +0.150 HD
ENDROOT
BRANCH   3   5
ATOM      5  CA  GLN A   7      25.016 -56.139 -29.455  0.00  0.00    +0.149 C 
BRANCH   5   6
ATOM      6  C   GLN A   7      25.221 -57.397 -30.284  0.00  0.00    +0.241 C 
ATOM      7  N   CYS A   8      26.348 -58.065 -30.069  0.00  0.00    -0.296 N 
ATOM      8  H   CYS A   8      27.025 -57.710 -29.364  0.00  0.00    +0.150 HD
ATOM      9  O   GLN A   7      24.375 -57.754 -31.106  0.00  0.00    -0.273 OA
BRANCH   7  10
ATOM     10  CA  CYS A   8      26.653 -59.284 -30.802  0.00  0.00    +0.160 C 
BRANCH  10  11
ATOM     11  C   CYS A   8      25.618 -60.370 -30.529  0.00  0.00    +0.242 C 
ATOM     12  N   LYS A   9      25.100 -60.403 -29.305  0.00  0.00    -0.297 N 
ATOM     13  H   LYS A   9      25.426 -59.718 -28.593  0.00  0.00    +0.150 HD
ATOM     14  O   CYS A   8      25.292 -61.158 -31.413  0.00  0.00    -0.273 OA
BRANCH  12  15
ATOM     15  CA  LYS A   9      24.082 -61.383 -28.943  0.00  0.00    +0.149 C 
BRANCH  15  16
ATOM     16  C   LYS A   9      22.803 -61.174 -29.744  0.00  0.00    +0.241 C 
ATOM     17  N   HIS A  10      22.378 -59.920 -29.861  0.00  0.00    -0.297 N 
ATOM     18  H   HIS A  10      22.899 -59.160 -29.379  0.00  0.00    +0.150 HD
ATOM     19  O   LYS A   9      22.219 -62.131 -30.253  0.00  0.00    -0.273 OA
BRANCH  17  20
ATOM     20  CA  HIS A  10      21.199 -59.584 -30.649  0.00  0.00    +0.155 C 
BRANCH  20  21
ATOM     21  C   HIS A  10      21.390 -59.963 -32.118  0.00  0.00    +0.241 C 
ATOM     22  N   MET A  11      22.603 -59.769 -32.628  0.00  0.00    -0.298 N 
ATOM     23  H   MET A  11      23.348 -59.364 -32.026  0.00  0.00    +0.150 HD
ATOM     24  O   HIS A  10      20.459 -60.431 -32.773  0.00  0.00    -0.273 OA
BRANCH  22  25
ATOM     25  CA  MET A  11      22.913 -60.110 -34.011  0.00  0.00    +0.138 C 
BRANCH  25  26
ATOM     26  C   MET A  11      23.010 -61.618 -34.211  0.00  0.00    +0.227 C 
ATOM     27  O   MET A  11      22.617 -62.141 -35.252  0.00  0.00    -0.286 OA
ENDBRANCH  25  26
BRANCH  25  28
ATOM     28  CB  MET A  11      24.217 -59.437 -34.447  0.00  0.00    +0.039 C 
BRANCH  28  29
ATOM     29  CG  MET A  11      24.076 -57.946 -34.696  0.00  0.00    +0.060 C 
BRANCH  29  30
ATOM     30  SD  MET A  11      25.634 -57.150 -35.130  0.00  0.00    -0.139 S 
ATOM     31  CE  MET A  11      26.117 -56.467 -33.548  0.00  0.00    +0.069 C 
ENDBRANCH  29  30
ENDBRANCH  28  29
ENDBRANCH  25  28
ENDBRANCH  22  25
ENDBRANCH  20  21
BRANCH  20  32
ATOM     32  CB  HIS A  10      20.874 -58.095 -30.527  0.00  0.00    +0.076 C 
BRANCH  32  33
ATOM     33  CG  HIS A  10      20.471 -57.675 -29.146  0.00  0.00    +0.082 A 
ATOM     34  CD2 HIS A  10      20.329 -58.386 -28.004  0.00  0.00    +0.115 A 
ATOM     35  NE2 HIS A  10      19.939 -57.507 -27.025  0.00  0.00    -0.221 NA
ATOM     36  CE1 HIS A  10      19.841 -56.297 -27.546  0.00  0.00    +0.199 A 
ATOM     37  ND1 HIS A  10      20.158 -56.372 -28.830  0.00  0.00    -0.227 NA
ENDBRANCH  32  33
ENDBRANCH  20  32
ENDBRANCH  17  20
ENDBRANCH  15  16
BRANCH  15  38
ATOM     38  CB  LYS A   9      23.783 -61.326 -27.443  0.00  0.00    +0.029 C 
BRANCH  38  39
ATOM     39  CG  LYS A   9      24.801 -62.076 -26.602  0.00  0.00    +0.000 C 
BRANCH  39  40
ATOM     40  CD  LYS A   9      24.928 -63.517 -27.082  0.00  0.00    -0.024 C 
BRANCH  40  41
ATOM     41  CE  LYS A   9      26.103 -64.221 -26.423  0.00  0.00    -0.086 C 
BRANCH  41  42
ATOM     42  NZ  LYS A   9      26.257 -65.631 -26.872  0.00  0.00    +0.380 N 
ATOM     43  HZ1 LYS A   9      27.073 -66.060 -26.390  0.00  0.00    -0.089 HD
ATOM     44  HZ2 LYS A   9      25.395 -66.164 -26.638  0.00  0.00    -0.089 HD
ATOM     45  HZ3 LYS A   9      26.410 -65.651 -27.900  0.00  0.00    -0.089 HD
ENDBRANCH  41  42
ENDBRANCH  40  41
ENDBRANCH  39  40
ENDBRANCH  38  39
ENDBRANCH  15  38
ENDBRANCH  12  15
ENDBRANCH  10  11
BRANCH  10  46
ATOM     46  CB  CYS A   8      28.051 -59.786 -30.447  0.00  0.00    +0.098 C 
ATOM     47  SG  CYS A   8      29.391 -58.774 -31.133  0.00  0.00    -0.080 S 
ENDBRANCH  10  46
ENDBRANCH   7  10
ENDBRANCH   5   6
BRANCH   5  48
ATOM     48  CB  GLN A   7      25.896 -55.013 -30.003  0.00  0.00    +0.039 C 
BRANCH  48  49
ATOM     49  CG  GLN A   7      25.398 -53.624 -29.675  0.00  0.00    +0.087 C 
BRANCH  49  50
ATOM     50  CD  GLN A   7      25.328 -53.380 -28.183  0.00  0.00    +0.219 C 
ATOM     51  NE2 GLN A   7      26.489 -53.320 -27.538  0.00  0.00    -0.329 N 
ATOM     52 HE21 GLN A   7      26.505 -53.158 -26.511  0.00  0.00    +0.145 HD
ATOM     53 HE22 GLN A   7      27.381 -53.435 -28.061  0.00  0.00    +0.145 HD
ATOM     54  OE1 GLN A   7      24.243 -53.251 -27.613  0.00  0.00    -0.275 OA
ENDBRANCH  49  50
ENDBRANCH  48  49
ENDBRANCH   5  48
ENDBRANCH   3   5
BRANCH   1  55
ATOM     55  CA  ASP A   6      24.964 -57.382 -25.854  0.00  0.00    +0.160 C 
BRANCH  55  57
ATOM     56  C   TYR A   5      27.134 -58.410 -26.251  0.00  0.00    +0.241 C 
ATOM     57  N   ASP A   6      26.412 -57.456 -25.673  0.00  0.00    -0.297 N 
ATOM     58  H   ASP A   6      26.888 -56.747 -25.079  0.00  0.00    +0.150 HD
ATOM     59  O   TYR A   5      26.651 -59.244 -27.014  0.00  0.00    -0.273 OA
BRANCH  56  60
ATOM     60  CA  TYR A   5      28.626 -58.441 -25.925  0.00  0.00    +0.153 C 
BRANCH  60  62
ATOM     61  C   MET A   4      29.427 -56.765 -27.469  0.00  0.00    +0.241 C 
ATOM     62  N   TYR A   5      29.302 -57.178 -26.212  0.00  0.00    -0.297 N 
ATOM     63  H   TYR A   5      29.685 -56.603 -25.434  0.00  0.00    +0.150 HD
ATOM     64  O   MET A   4      28.888 -57.349 -28.409  0.00  0.00    -0.273 OA
BRANCH  61  65
ATOM     65  CA  MET A   4      30.260 -55.512 -27.732  0.00  0.00    +0.149 C 
BRANCH  65  67
ATOM     66  C   CYS A   3      30.088 -53.434 -26.523  0.00  0.00    +0.242 C 
ATOM     67  N   MET A   4      30.536 -54.684 -26.561  0.00  0.00    -0.297 N 
ATOM     68  H   MET A   4      31.079 -55.070 -25.763  0.00  0.00    +0.150 HD
ATOM     69  O   CYS A   3      29.363 -52.974 -27.403  0.00  0.00    -0.273 OA
BRANCH  66  70
ATOM     70  CA  CYS A   3      30.486 -52.565 -25.330  0.00  0.00    +0.160 C 
BRANCH  70  72
ATOM     71  C   PRO A   2      32.909 -53.011 -25.275  0.00  0.00    +0.241 C 
ATOM     72  N   CYS A   3      31.725 -52.976 -24.667  0.00  0.00    -0.296 N 
ATOM     73  H   CYS A   3      31.678 -53.256 -23.666  0.00  0.00    +0.150 HD
ATOM     74  O   PRO A   2      33.071 -52.795 -26.474  0.00  0.00    -0.273 OA
BRANCH  71  77
ATOM     75  C   LEU A   1      34.636 -55.468 -25.538  0.00  0.00    +0.241 C 
ATOM     76  N   PRO A   2      35.048 -54.293 -25.035  0.00  0.00    -0.272 N 
ATOM     77  CA  PRO A   2      34.108 -53.364 -24.397  0.00  0.00    +0.152 C 
ATOM     78  CB  PRO A   2      34.968 -52.126 -24.140  0.00  0.00    +0.031 C 
ATOM     79  CG  PRO A   2      36.346 -52.663 -23.996  0.00  0.00    +0.024 C 
ATOM     80  CD  PRO A   2      36.433 -53.791 -24.980  0.00  0.00    +0.094 C 
ATOM     81  O   LEU A   1      33.458 -55.826 -25.515  0.00  0.00    -0.273 OA
BRANCH  75  82
ATOM     82  CA  LEU A   1      35.699 -56.377 -26.144  0.00  0.00    +0.145 C 
BRANCH  82  83
ATOM     83  N   LEU A   1      35.292 -57.777 -26.030  0.00  0.00    -0.238 NA
ATOM     84  H   LEU A   1      35.266 -58.367 -26.886  0.00  0.00    +0.142 HD
ENDBRANCH  82  83
BRANCH  82  85
ATOM     85  CB  LEU A   1      35.941 -55.997 -27.607  0.00  0.00    +0.026 C 
BRANCH  85  86
ATOM     86  CG  LEU A   1      37.234 -56.466 -28.270  0.00  0.00    +0.002 C 
ATOM     87  CD2 LEU A   1      38.442 -55.798 -27.635  0.00  0.00    +0.000 C 
ATOM     88  CD1 LEU A   1      37.181 -56.158 -29.748  0.00  0.00    +0.000 C 
ENDBRANCH  85  86
ENDBRANCH  82  85
ENDBRANCH  75  82
ENDBRANCH  71  77
ENDBRANCH  70  72
BRANCH  70  89
ATOM     89  CB  CYS A   3      30.590 -51.108 -25.797  0.00  0.00    +0.098 C 
ATOM     90  SG  CYS A   3      30.753 -49.885 -24.483  0.00  0.00    -0.080 S 
ENDBRANCH  70  89
ENDBRANCH  66  70
ENDBRANCH  65  67
BRANCH  65  91
ATOM     91  CB  MET A   4      31.570 -55.919 -28.403  0.00  0.00    +0.041 C 
BRANCH  91  92
ATOM     92  CG  MET A   4      32.098 -54.879 -29.371  0.00  0.00    +0.060 C 
BRANCH  92  93
ATOM     93  SD  MET A   4      33.457 -55.508 -30.364  0.00  0.00    -0.139 S 
ATOM     94  CE  MET A   4      32.811 -57.113 -30.823  0.00  0.00    +0.069 C 
ENDBRANCH  92  93
ENDBRANCH  91  92
ENDBRANCH  65  91
ENDBRANCH  61  65
ENDBRANCH  60  62
BRANCH  60  95
ATOM     95  CB  TYR A   5      28.817 -58.842 -24.465  0.00  0.00    +0.055 C 
BRANCH  95  96
ATOM     96  CG  TYR A   5      28.372 -60.259 -24.192  0.00  0.00    -0.020 A 
ATOM     97  CD2 TYR A   5      27.233 -60.521 -23.443  0.00  0.00    -0.001 A 
ATOM     98  CE2 TYR A   5      26.823 -61.823 -23.197  0.00  0.00    +0.036 A 
ATOM     99  CZ  TYR A   5      27.557 -62.875 -23.707  0.00  0.00    +0.134 A 
ATOM    100  CE1 TYR A   5      28.688 -62.637 -24.458  0.00  0.00    +0.036 A 
ATOM    101  CD1 TYR A   5      29.088 -61.338 -24.697  0.00  0.00    -0.001 A 
BRANCH  99 102
ATOM    102  OH  TYR A   5      27.157 -64.170 -23.468  0.00  0.00    -0.506 OA
ATOM    103  HH  TYR A   5      27.790 -64.795 -23.902  0.00  0.00    +0.292 HD
ENDBRANCH  99 102
ENDBRANCH  95  96
ENDBRANCH  60  95
ENDBRANCH  56  60
ENDBRANCH  55  57
BRANCH  55 104
ATOM    104  CB  ASP A   6      24.381 -56.232 -25.029  0.00  0.00    +0.143 C 
BRANCH 104 105
ATOM    105  CG  ASP A   6      24.548 -56.440 -23.536  0.00  0.00    +0.367 C 
ATOM    106  OD2 ASP A   6      24.494 -55.442 -22.787  0.00  0.00    -0.246 OA
ATOM    107  OD1 ASP A   6      24.729 -57.602 -23.111  0.00  0.00    -0.246 OA
ENDBRANCH 104 105
ENDBRANCH  55 104
ENDBRANCH   1  55
TORSDOF 46
REMARK  Name = ../refined-set-2016/4p6w/4p6w_pocket.pdb
REMARK  262 active torsions:
REMARK  status: ('A' for Active; 'I' for Inactive)
REMARK    1  A    between atoms: _1  and  _3
REMARK    2  A    between atoms: _3  and  _4
REMARK    3  A    between atoms: _3  and  _6
REMARK    4  A    between atoms: _6  and  _7
REMARK    5  A    between atoms: _10  and  _12
REMARK    6  A    between atoms: _12  and  _13
REMARK    7  A    between atoms: _12  and  _15
REMARK    8  A    between atoms: _15  and  _16
REMARK    9  A    between atoms: _19  and  _21
REMARK   10  A    between atoms: _21  and  _22
REMARK   11  A    between atoms: _21  and  _24
REMARK   12  A    between atoms: _24  and  _25
REMARK   13  A    between atoms: _35  and  _37
REMARK   14  A    between atoms: _37  and  _38
REMARK   15  A    between atoms: _37  and  _40
REMARK   16  A    between atoms: _40  and  _41
REMARK   17  A    between atoms: _44  and  _46
REMARK   18  A    between atoms: _46  and  _47
REMARK   19  A    between atoms: _46  and  _49
REMARK   20  A    between atoms: _49  and  _50
REMARK   21  A    between atoms: _50  and  _51
REMARK   22  A    between atoms: _53  and  _55
REMARK   23  A    between atoms: _55  and  _56
REMARK   24  A    between atoms: _55  and  _58
REMARK   25  A    between atoms: _58  and  _59
REMARK   26  A    between atoms: _62  and  _64
REMARK   27  A    between atoms: _64  and  _65
REMARK   28  A    between atoms: _64  and  _67
REMARK   29  A    between atoms: _67  and  _68
REMARK   30  A    between atoms: _71  and  _73
REMARK   31  A    between atoms: _73  and  _74
REMARK   32  A    between atoms: _73  and  _76
REMARK   33  A    between atoms: _76  and  _77
REMARK   34  A    between atoms: _80  and  _82
REMARK   35  A    between atoms: _82  and  _83
REMARK   36  A    between atoms: _82  and  _85
REMARK   37  A    between atoms: _85  and  _86
REMARK   38  A    between atoms: _91  and  _93
REMARK   39  A    between atoms: _93  and  _94
REMARK   40  A    between atoms: _93  and  _96
REMARK   41  A    between atoms: _96  and  _97
REMARK   42  A    between atoms: _97  and  _98
REMARK   43  A    between atoms: _100  and  _102
REMARK   44  A    between atoms: _102  and  _103
REMARK   45  A    between atoms: _102  and  _105
REMARK   46  A    between atoms: _105  and  _106
REMARK   47  A    between atoms: _109  and  _111
REMARK   48  A    between atoms: _111  and  _112
REMARK   49  A    between atoms: _114  and  _116
REMARK   50  A    between atoms: _116  and  _117
REMARK   51  A    between atoms: _119  and  _121
REMARK   52  A    between atoms: _121  and  _122
REMARK   53  A    between atoms: _121  and  _124
REMARK   54  A    between atoms: _124  and  _125
REMARK   55  A    between atoms: _125  and  _126
REMARK   56  A    between atoms: _126  and  _127
REMARK   57  A    between atoms: _136  and  _138
REMARK   58  A    between atoms: _138  and  _139
REMARK   59  A    between atoms: _138  and  _141
REMARK   60  A    between atoms: _141  and  _142
REMARK   61  A    between atoms: _142  and  _143
REMARK   62  A    between atoms: _148  and  _150
REMARK   63  A    between atoms: _150  and  _151
REMARK   64  A    between atoms: _150  and  _153
REMARK   65  A    between atoms: _156  and  _158
REMARK   66  A    between atoms: _158  and  _159
REMARK   67  A    between atoms: _158  and  _161
REMARK   68  A    between atoms: _161  and  _162
REMARK   69  A    between atoms: _172  and  _174
REMARK   70  A    between atoms: _174  and  _175
REMARK   71  A    between atoms: _174  and  _177
REMARK   72  A    between atoms: _177  and  _178
REMARK   73  A    between atoms: _178  and  _179
REMARK   74  A    between atoms: _181  and  _183
REMARK   75  A    between atoms: _183  and  _184
REMARK   76  A    between atoms: _187  and  _189
REMARK   77  A    between atoms: _189  and  _190
REMARK   78  A    between atoms: _189  and  _192
REMARK   79  A    between atoms: _192  and  _193
REMARK   80  A    between atoms: _196  and  _198
REMARK   81  A    between atoms: _198  and  _199
REMARK   82  A    between atoms: _198  and  _201
REMARK   83  A    between atoms: _201  and  _202
REMARK   84  A    between atoms: _202  and  _203
REMARK   85  A    between atoms: _205  and  _207
REMARK   86  A    between atoms: _207  and  _208
REMARK   87  A    between atoms: _211  and  _213
REMARK   88  A    between atoms: _213  and  _214
REMARK   89  A    between atoms: _213  and  _216
REMARK   90  A    between atoms: _216  and  _217
REMARK   91  A    between atoms: _223  and  _225
REMARK   92  A    between atoms: _225  and  _226
REMARK   93  A    between atoms: _229  and  _231
REMARK   94  A    between atoms: _231  and  _232
REMARK   95  A    between atoms: _231  and  _234
REMARK   96  A    between atoms: _234  and  _235
REMARK   97  A    between atoms: _238  and  _240
REMARK   98  A    between atoms: _240  and  _241
REMARK   99  A    between atoms: _243  and  _245
REMARK  100  A    between atoms: _245  and  _246
REMARK  101  A    between atoms: _245  and  _248
REMARK  102  A    between atoms: _248  and  _249
REMARK  103  A    between atoms: _249  and  _250
REMARK  104  A    between atoms: _250  and  _251
REMARK  105  A    between atoms: _260  and  _262
REMARK  106  A    between atoms: _262  and  _263
REMARK  107  A    between atoms: _262  and  _265
REMARK  108  A    between atoms: _265  and  _266
REMARK  109  A    between atoms: _268  and  _270
REMARK  110  A    between atoms: _270  and  _271
REMARK  111  A    between atoms: _270  and  _273
REMARK  112  A    between atoms: _273  and  _274
REMARK  113  A    between atoms: _277  and  _279
REMARK  114  A    between atoms: _279  and  _280
REMARK  115  A    between atoms: _279  and  _282
REMARK  116  A    between atoms: _282  and  _283
REMARK  117  A    between atoms: _288  and  _289
REMARK  118  A    between atoms: _291  and  _293
REMARK  119  A    between atoms: _293  and  _294
REMARK  120  A    between atoms: _293  and  _296
REMARK  121  A    between atoms: _296  and  _297
REMARK  122  A    between atoms: _303  and  _305
REMARK  123  A    between atoms: _305  and  _306
REMARK  124  A    between atoms: _309  and  _311
REMARK  125  A    between atoms: _311  and  _312
REMARK  126  A    between atoms: _311  and  _314
REMARK  127  A    between atoms: _314  and  _315
REMARK  128  A    between atoms: _318  and  _320
REMARK  129  A    between atoms: _320  and  _321
REMARK  130  A    between atoms: _320  and  _323
REMARK  131  A    between atoms: _323  and  _324
REMARK  132  A    between atoms: _327  and  _329
REMARK  133  A    between atoms: _329  and  _330
REMARK  134  A    between atoms: _329  and  _332
REMARK  135  A    between atoms: _332  and  _333
REMARK  136  A    between atoms: _333  and  _334
REMARK  137  A    between atoms: _334  and  _335
REMARK  138  A    between atoms: _344  and  _346
REMARK  139  A    between atoms: _346  and  _347
REMARK  140  A    between atoms: _346  and  _349
REMARK  141  A    between atoms: _349  and  _350
REMARK  142  A    between atoms: _350  and  _351
REMARK  143  A    between atoms: _353  and  _355
REMARK  144  A    between atoms: _355  and  _356
REMARK  145  A    between atoms: _355  and  _358
REMARK  146  A    between atoms: _358  and  _359
REMARK  147  A    between atoms: _363  and  _364
REMARK  148  A    between atoms: _369  and  _371
REMARK  149  A    between atoms: _371  and  _372
REMARK  150  A    between atoms: _371  and  _374
REMARK  151  A    between atoms: _376  and  _378
REMARK  152  A    between atoms: _378  and  _379
REMARK  153  A    between atoms: _378  and  _381
REMARK  154  A    between atoms: _381  and  _382
REMARK  155  A    between atoms: _382  and  _383
REMARK  156  A    between atoms: _385  and  _387
REMARK  157  A    between atoms: _387  and  _388
REMARK  158  A    between atoms: _387  and  _390
REMARK  159  A    between atoms: _390  and  _391
REMARK  160  A    between atoms: _396  and  _397
REMARK  161  A    between atoms: _399  and  _401
REMARK  162  A    between atoms: _401  and  _402
REMARK  163  A    between atoms: _401  and  _404
REMARK  164  A    between atoms: _404  and  _405
REMARK  165  A    between atoms: _408  and  _410
REMARK  166  A    between atoms: _410  and  _411
REMARK  167  A    between atoms: _410  and  _413
REMARK  168  A    between atoms: _413  and  _414
REMARK  169  A    between atoms: _414  and  _415
REMARK  170  A    between atoms: _420  and  _422
REMARK  171  A    between atoms: _422  and  _423
REMARK  172  A    between atoms: _422  and  _425
REMARK  173  A    between atoms: _427  and  _429
REMARK  174  A    between atoms: _429  and  _430
REMARK  175  A    between atoms: _429  and  _432
REMARK  176  A    between atoms: _432  and  _433
REMARK  177  A    between atoms: _433  and  _434
REMARK  178  A    between atoms: _434  and  _435
REMARK  179  A    between atoms: _435  and  _436
REMARK  180  A    between atoms: _440  and  _442
REMARK  181  A    between atoms: _442  and  _443
REMARK  182  A    between atoms: _442  and  _445
REMARK  183  A    between atoms: _445  and  _446
REMARK  184  A    between atoms: _451  and  _453
REMARK  185  A    between atoms: _453  and  _454
REMARK  186  A    between atoms: _453  and  _456
REMARK  187  A    between atoms: _456  and  _457
REMARK  188  A    between atoms: _457  and  _458
REMARK  189  A    between atoms: _460  and  _462
REMARK  190  A    between atoms: _462  and  _463
REMARK  191  A    between atoms: _462  and  _465
REMARK  192  A    between atoms: _468  and  _470
REMARK  193  A    between atoms: _470  and  _471
REMARK  194  A    between atoms: _470  and  _473
REMARK  195  A    between atoms: _476  and  _478
REMARK  196  A    between atoms: _478  and  _479
REMARK  197  A    between atoms: _478  and  _481
REMARK  198  A    between atoms: _481  and  _482
REMARK  199  A    between atoms: _487  and  _489
REMARK  200  A    between atoms: _489  and  _490
REMARK  201  A    between atoms: _489  and  _492
REMARK  202  A    between atoms: _492  and  _493
REMARK  203  A    between atoms: _496  and  _498
REMARK  204  A    between atoms: _498  and  _499
REMARK  205  A    between atoms: _498  and  _501
REMARK  206  A    between atoms: _501  and  _502
REMARK  207  A    between atoms: _505  and  _507
REMARK  208  A    between atoms: _507  and  _508
REMARK  209  A    between atoms: _507  and  _510
REMARK  210  A    between atoms: _510  and  _511
REMARK  211  A    between atoms: _516  and  _518
REMARK  212  A    between atoms: _518  and  _519
REMARK  213  A    between atoms: _518  and  _521
REMARK  214  A    between atoms: _521  and  _522
REMARK  215  A    between atoms: _527  and  _528
REMARK  216  A    between atoms: _530  and  _532
REMARK  217  A    between atoms: _532  and  _533
REMARK  218  A    between atoms: _532  and  _535
REMARK  219  A    between atoms: _537  and  _539
REMARK  220  A    between atoms: _539  and  _540
REMARK  221  A    between atoms: _539  and  _542
REMARK  222  A    between atoms: _542  and  _543
REMARK  223  A    between atoms: _549  and  _551
REMARK  224  A    between atoms: _551  and  _552
REMARK  225  A    between atoms: _551  and  _554
REMARK  226  A    between atoms: _554  and  _555
REMARK  227  A    between atoms: _555  and  _556
REMARK  228  A    between atoms: _561  and  _563
REMARK  229  A    between atoms: _563  and  _564
REMARK  230  A    between atoms: _563  and  _566
REMARK  231  A    between atoms: _566  and  _567
REMARK  232  A    between atoms: _570  and  _572
REMARK  233  A    between atoms: _572  and  _573
REMARK  234  A    between atoms: _572  and  _575
REMARK  235  A    between atoms: _575  and  _576
REMARK  236  A    between atoms: _582  and  _584
REMARK  237  A    between atoms: _584  and  _585
REMARK  238  A    between atoms: _584  and  _587
REMARK  239  A    between atoms: _587  and  _588
REMARK  240  A    between atoms: _588  and  _589
REMARK  241  A    between atoms: _591  and  _593
REMARK  242  A    between atoms: _593  and  _594
REMARK  243  A    between atoms: _593  and  _596
REMARK  244  A    between atoms: _596  and  _597
REMARK  245  A    between atoms: _600  and  _602
REMARK  246  A    between atoms: _602  and  _603
REMARK  247  A    between atoms: _602  and  _605
REMARK  248  A    between atoms: _605  and  _606
REMARK  249  A    between atoms: _606  and  _607
REMARK  250  A    between atoms: _610  and  _612
REMARK  251  A    between atoms: _612  and  _613
REMARK  252  A    between atoms: _612  and  _615
REMARK  253  A    between atoms: _615  and  _616
REMARK  254  A    between atoms: _623  and  _624
REMARK  255  A    between atoms: _629  and  _631
REMARK  256  A    between atoms: _631  and  _632
REMARK  257  A    between atoms: _631  and  _634
REMARK  258  A    between atoms: _634  and  _635
REMARK  259  A    between atoms: _638  and  _640
REMARK  260  A    between atoms: _640  and  _641
REMARK  261  A    between atoms: _640  and  _643
REMARK  262  A    between atoms: _643  and  _644
REMARK                            x       y       z     vdW  Elec       q    Type
REMARK                         _______ _______ _______ _____ _____    ______ ____
ROOT
ATOM      1  C   VAL A   1      16.457 -55.927 -34.228  0.00  0.00    +0.238 C 
ATOM      2  O   VAL A   1      17.417 -55.376 -33.692  0.00  0.00    -0.274 OA
ATOM      3  N   VAL A   2      15.769 -55.381 -35.224  0.00  0.00    -0.298 N 
ATOM      4  H   VAL A   2      14.966 -55.907 -35.625  0.00  0.00    +0.150 HD
ENDROOT
BRANCH   1   5
ATOM      5  CA  VAL A   1      15.973 -57.297 -33.762  0.00  0.00    +0.145 C 
BRANCH   5   6
ATOM      6  CB  VAL A   1      16.397 -58.365 -34.787  0.00  0.00    +0.025 C 
ATOM      7  CG2 VAL A   1      16.139 -59.758 -34.240  0.00  0.00    +0.002 C 
ATOM      8  CG1 VAL A   1      17.865 -58.195 -35.162  0.00  0.00    +0.002 C 
ENDBRANCH   5   6
BRANCH   5   9
ATOM      9  N   VAL A   1      14.527 -57.276 -33.569  0.00  0.00    -0.238 NA
ATOM     10  H   VAL A   1      13.935 -57.956 -34.087  0.00  0.00    +0.142 HD
ENDBRANCH   5   9
ENDBRANCH   1   5
BRANCH   3  11
ATOM     11  CA  VAL A   2      16.097 -54.073 -35.777  0.00  0.00    +0.137 C 
BRANCH  11  12
ATOM     12  CB  VAL A   2      15.241 -53.773 -37.023  0.00  0.00    +0.026 C 
ATOM     13  CG2 VAL A   2      15.343 -52.310 -37.417  0.00  0.00    +0.002 C 
ATOM     14  CG1 VAL A   2      15.674 -54.663 -38.164  0.00  0.00    +0.002 C 
ENDBRANCH  11  12
BRANCH  11  15
ATOM     15  C   VAL A   2      15.905 -52.965 -34.748  0.00  0.00    +0.227 C 
ATOM     16  O   VAL A   2      16.719 -52.047 -34.654  0.00  0.00    -0.286 OA
ENDBRANCH  11  15
ENDBRANCH   3  11
TORSDOF 6
REMARK  Name = ../refined-set-2016/4p6w/4p6w_pocket.pdb
REMARK  262 active torsions:
REMARK  status: ('A' for Active; 'I' for Inactive)
REMARK    1  A    between atoms: _1  and  _3
REMARK    2  A    between atoms: _3  and  _4
REMARK    3  A    between atoms: _3  and  _6
REMARK    4  A    between atoms: _6  and  _7
REMARK    5  A    between atoms: _10  and  _12
REMARK    6  A    between atoms: _12  and  _13
REMARK    7  A    between atoms: _12  and  _15
REMARK    8  A    between atoms: _15  and  _16
REMARK    9  A    between atoms: _19  and  _21
REMARK   10  A    between atoms: _21  and  _22
REMARK   11  A    between atoms: _21  and  _24
REMARK   12  A    between atoms: _24  and  _25
REMARK   13  A    between atoms: _35  and  _37
REMARK   14  A    between atoms: _37  and  _38
REMARK   15  A    between atoms: _37  and  _40
REMARK   16  A    between atoms: _40  and  _41
REMARK   17  A    between atoms: _44  and  _46
REMARK   18  A    between atoms: _46  and  _47
REMARK   19  A    between atoms: _46  and  _49
REMARK   20  A    between atoms: _49  and  _50
REMARK   21  A    between atoms: _50  and  _51
REMARK   22  A    between atoms: _53  and  _55
REMARK   23  A    between atoms: _55  and  _56
REMARK   24  A    between atoms: _55  and  _58
REMARK   25  A    between atoms: _58  and  _59
REMARK   26  A    between atoms: _62  and  _64
REMARK   27  A    between atoms: _64  and  _65
REMARK   28  A    between atoms: _64  and  _67
REMARK   29  A    between atoms: _67  and  _68
REMARK   30  A    between atoms: _71  and  _73
REMARK   31  A    between atoms: _73  and  _74
REMARK   32  A    between atoms: _73  and  _76
REMARK   33  A    between atoms: _76  and  _77
REMARK   34  A    between atoms: _80  and  _82
REMARK   35  A    between atoms: _82  and  _83
REMARK   36  A    between atoms: _82  and  _85
REMARK   37  A    between atoms: _85  and  _86
REMARK   38  A    between atoms: _91  and  _93
REMARK   39  A    between atoms: _93  and  _94
REMARK   40  A    between atoms: _93  and  _96
REMARK   41  A    between atoms: _96  and  _97
REMARK   42  A    between atoms: _97  and  _98
REMARK   43  A    between atoms: _100  and  _102
REMARK   44  A    between atoms: _102  and  _103
REMARK   45  A    between atoms: _102  and  _105
REMARK   46  A    between atoms: _105  and  _106
REMARK   47  A    between atoms: _109  and  _111
REMARK   48  A    between atoms: _111  and  _112
REMARK   49  A    between atoms: _114  and  _116
REMARK   50  A    between atoms: _116  and  _117
REMARK   51  A    between atoms: _119  and  _121
REMARK   52  A    between atoms: _121  and  _122
REMARK   53  A    between atoms: _121  and  _124
REMARK   54  A    between atoms: _124  and  _125
REMARK   55  A    between atoms: _125  and  _126
REMARK   56  A    between atoms: _126  and  _127
REMARK   57  A    between atoms: _136  and  _138
REMARK   58  A    between atoms: _138  and  _139
REMARK   59  A    between atoms: _138  and  _141
REMARK   60  A    between atoms: _141  and  _142
REMARK   61  A    between atoms: _142  and  _143
REMARK   62  A    between atoms: _148  and  _150
REMARK   63  A    between atoms: _150  and  _151
REMARK   64  A    between atoms: _150  and  _153
REMARK   65  A    between atoms: _156  and  _158
REMARK   66  A    between atoms: _158  and  _159
REMARK   67  A    between atoms: _158  and  _161
REMARK   68  A    between atoms: _161  and  _162
REMARK   69  A    between atoms: _172  and  _174
REMARK   70  A    between atoms: _174  and  _175
REMARK   71  A    between atoms: _174  and  _177
REMARK   72  A    between atoms: _177  and  _178
REMARK   73  A    between atoms: _178  and  _179
REMARK   74  A    between atoms: _181  and  _183
REMARK   75  A    between atoms: _183  and  _184
REMARK   76  A    between atoms: _187  and  _189
REMARK   77  A    between atoms: _189  and  _190
REMARK   78  A    between atoms: _189  and  _192
REMARK   79  A    between atoms: _192  and  _193
REMARK   80  A    between atoms: _196  and  _198
REMARK   81  A    between atoms: _198  and  _199
REMARK   82  A    between atoms: _198  and  _201
REMARK   83  A    between atoms: _201  and  _202
REMARK   84  A    between atoms: _202  and  _203
REMARK   85  A    between atoms: _205  and  _207
REMARK   86  A    between atoms: _207  and  _208
REMARK   87  A    between atoms: _211  and  _213
REMARK   88  A    between atoms: _213  and  _214
REMARK   89  A    between atoms: _213  and  _216
REMARK   90  A    between atoms: _216  and  _217
REMARK   91  A    between atoms: _223  and  _225
REMARK   92  A    between atoms: _225  and  _226
REMARK   93  A    between atoms: _229  and  _231
REMARK   94  A    between atoms: _231  and  _232
REMARK   95  A    between atoms: _231  and  _234
REMARK   96  A    between atoms: _234  and  _235
REMARK   97  A    between atoms: _238  and  _240
REMARK   98  A    between atoms: _240  and  _241
REMARK   99  A    between atoms: _243  and  _245
REMARK  100  A    between atoms: _245  and  _246
REMARK  101  A    between atoms: _245  and  _248
REMARK  102  A    between atoms: _248  and  _249
REMARK  103  A    between atoms: _249  and  _250
REMARK  104  A    between atoms: _250  and  _251
REMARK  105  A    between atoms: _260  and  _262
REMARK  106  A    between atoms: _262  and  _263
REMARK  107  A    between atoms: _262  and  _265
REMARK  108  A    between atoms: _265  and  _266
REMARK  109  A    between atoms: _268  and  _270
REMARK  110  A    between atoms: _270  and  _271
REMARK  111  A    between atoms: _270  and  _273
REMARK  112  A    between atoms: _273  and  _274
REMARK  113  A    between atoms: _277  and  _279
REMARK  114  A    between atoms: _279  and  _280
REMARK  115  A    between atoms: _279  and  _282
REMARK  116  A    between atoms: _282  and  _283
REMARK  117  A    between atoms: _288  and  _289
REMARK  118  A    between atoms: _291  and  _293
REMARK  119  A    between atoms: _293  and  _294
REMARK  120  A    between atoms: _293  and  _296
REMARK  121  A    between atoms: _296  and  _297
REMARK  122  A    between atoms: _303  and  _305
REMARK  123  A    between atoms: _305  and  _306
REMARK  124  A    between atoms: _309  and  _311
REMARK  125  A    between atoms: _311  and  _312
REMARK  126  A    between atoms: _311  and  _314
REMARK  127  A    between atoms: _314  and  _315
REMARK  128  A    between atoms: _318  and  _320
REMARK  129  A    between atoms: _320  and  _321
REMARK  130  A    between atoms: _320  and  _323
REMARK  131  A    between atoms: _323  and  _324
REMARK  132  A    between atoms: _327  and  _329
REMARK  133  A    between atoms: _329  and  _330
REMARK  134  A    between atoms: _329  and  _332
REMARK  135  A    between atoms: _332  and  _333
REMARK  136  A    between atoms: _333  and  _334
REMARK  137  A    between atoms: _334  and  _335
REMARK  138  A    between atoms: _344  and  _346
REMARK  139  A    between atoms: _346  and  _347
REMARK  140  A    between atoms: _346  and  _349
REMARK  141  A    between atoms: _349  and  _350
REMARK  142  A    between atoms: _350  and  _351
REMARK  143  A    between atoms: _353  and  _355
REMARK  144  A    between atoms: _355  and  _356
REMARK  145  A    between atoms: _355  and  _358
REMARK  146  A    between atoms: _358  and  _359
REMARK  147  A    between atoms: _363  and  _364
REMARK  148  A    between atoms: _369  and  _371
REMARK  149  A    between atoms: _371  and  _372
REMARK  150  A    between atoms: _371  and  _374
REMARK  151  A    between atoms: _376  and  _378
REMARK  152  A    between atoms: _378  and  _379
REMARK  153  A    between atoms: _378  and  _381
REMARK  154  A    between atoms: _381  and  _382
REMARK  155  A    between atoms: _382  and  _383
REMARK  156  A    between atoms: _385  and  _387
REMARK  157  A    between atoms: _387  and  _388
REMARK  158  A    between atoms: _387  and  _390
REMARK  159  A    between atoms: _390  and  _391
REMARK  160  A    between atoms: _396  and  _397
REMARK  161  A    between atoms: _399  and  _401
REMARK  162  A    between atoms: _401  and  _402
REMARK  163  A    between atoms: _401  and  _404
REMARK  164  A    between atoms: _404  and  _405
REMARK  165  A    between atoms: _408  and  _410
REMARK  166  A    between atoms: _410  and  _411
REMARK  167  A    between atoms: _410  and  _413
REMARK  168  A    between atoms: _413  and  _414
REMARK  169  A    between atoms: _414  and  _415
REMARK  170  A    between atoms: _420  and  _422
REMARK  171  A    between atoms: _422  and  _423
REMARK  172  A    between atoms: _422  and  _425
REMARK  173  A    between atoms: _427  and  _429
REMARK  174  A    between atoms: _429  and  _430
REMARK  175  A    between atoms: _429  and  _432
REMARK  176  A    between atoms: _432  and  _433
REMARK  177  A    between atoms: _433  and  _434
REMARK  178  A    between atoms: _434  and  _435
REMARK  179  A    between atoms: _435  and  _436
REMARK  180  A    between atoms: _440  and  _442
REMARK  181  A    between atoms: _442  and  _443
REMARK  182  A    between atoms: _442  and  _445
REMARK  183  A    between atoms: _445  and  _446
REMARK  184  A    between atoms: _451  and  _453
REMARK  185  A    between atoms: _453  and  _454
REMARK  186  A    between atoms: _453  and  _456
REMARK  187  A    between atoms: _456  and  _457
REMARK  188  A    between atoms: _457  and  _458
REMARK  189  A    between atoms: _460  and  _462
REMARK  190  A    between atoms: _462  and  _463
REMARK  191  A    between atoms: _462  and  _465
REMARK  192  A    between atoms: _468  and  _470
REMARK  193  A    between atoms: _470  and  _471
REMARK  194  A    between atoms: _470  and  _473
REMARK  195  A    between atoms: _476  and  _478
REMARK  196  A    between atoms: _478  and  _479
REMARK  197  A    between atoms: _478  and  _481
REMARK  198  A    between atoms: _481  and  _482
REMARK  199  A    between atoms: _487  and  _489
REMARK  200  A    between atoms: _489  and  _490
REMARK  201  A    between atoms: _489  and  _492
REMARK  202  A    between atoms: _492  and  _493
REMARK  203  A    between atoms: _496  and  _498
REMARK  204  A    between atoms: _498  and  _499
REMARK  205  A    between atoms: _498  and  _501
REMARK  206  A    between atoms: _501  and  _502
REMARK  207  A    between atoms: _505  and  _507
REMARK  208  A    between atoms: _507  and  _508
REMARK  209  A    between atoms: _507  and  _510
REMARK  210  A    between atoms: _510  and  _511
REMARK  211  A    between atoms: _516  and  _518
REMARK  212  A    between atoms: _518  and  _519
REMARK  213  A    between atoms: _518  and  _521
REMARK  214  A    between atoms: _521  and  _522
REMARK  215  A    between atoms: _527  and  _528
REMARK  216  A    between atoms: _530  and  _532
REMARK  217  A    between atoms: _532  and  _533
REMARK  218  A    between atoms: _532  and  _535
REMARK  219  A    between atoms: _537  and  _539
REMARK  220  A    between atoms: _539  and  _540
REMARK  221  A    between atoms: _539  and  _542
REMARK  222  A    between atoms: _542  and  _543
REMARK  223  A    between atoms: _549  and  _551
REMARK  224  A    between atoms: _551  and  _552
REMARK  225  A    between atoms: _551  and  _554
REMARK  226  A    between atoms: _554  and  _555
REMARK  227  A    between atoms: _555  and  _556
REMARK  228  A    between atoms: _561  and  _563
REMARK  229  A    between atoms: _563  and  _564
REMARK  230  A    between atoms: _563  and  _566
REMARK  231  A    between atoms: _566  and  _567
REMARK  232  A    between atoms: _570  and  _572
REMARK  233  A    between atoms: _572  and  _573
REMARK  234  A    between atoms: _572  and  _575
REMARK  235  A    between atoms: _575  and  _576
REMARK  236  A    between atoms: _582  and  _584
REMARK  237  A    between atoms: _584  and  _585
REMARK  238  A    between atoms: _584  and  _587
REMARK  239  A    between atoms: _587  and  _588
REMARK  240  A    between atoms: _588  and  _589
REMARK  241  A    between atoms: _591  and  _593
REMARK  242  A    between atoms: _593  and  _594
REMARK  243  A    between atoms: _593  and  _596
REMARK  244  A    between atoms: _596  and  _597
REMARK  245  A    between atoms: _600  and  _602
REMARK  246  A    between atoms: _602  and  _603
REMARK  247  A    between atoms: _602  and  _605
REMARK  248  A    between atoms: _605  and  _606
REMARK  249  A    between atoms: _606  and  _607
REMARK  250  A    between atoms: _610  and  _612
REMARK  251  A    between atoms: _612  and  _613
REMARK  252  A    between atoms: _612  and  _615
REMARK  253  A    between atoms: _615  and  _616
REMARK  254  A    between atoms: _623  and  _624
REMARK  255  A    between atoms: _629  and  _631
REMARK  256  A    between atoms: _631  and  _632
REMARK  257  A    between atoms: _631  and  _634
REMARK  258  A    between atoms: _634  and  _635
REMARK  259  A    between atoms: _638  and  _640
REMARK  260  A    between atoms: _640  and  _641
REMARK  261  A    between atoms: _640  and  _643
REMARK  262  A    between atoms: _643  and  _644
REMARK                            x       y       z     vdW  Elec       q    Type
REMARK                         _______ _______ _______ _____ _____    ______ ____
ROOT
ATOM      1  C   TYR A   5      22.924 -47.903 -31.050  0.00  0.00    +0.241 C 
ATOM      2  O   TYR A   5      23.831 -47.133 -30.731  0.00  0.00    -0.273 OA
ATOM      3  N   CYS A   6      22.537 -48.082 -32.310  0.00  0.00    -0.296 N 
ATOM      4  H   CYS A   6      21.791 -48.776 -32.517  0.00  0.00    +0.150 HD
ENDROOT
BRANCH   3   5
ATOM      5  CA  CYS A   6      23.133 -47.329 -33.411  0.00  0.00    +0.160 C 
BRANCH   5   6
ATOM      6  C   CYS A   6      22.880 -45.833 -33.245  0.00  0.00    +0.242 C 
ATOM      7  N   PHE A   7      21.632 -45.480 -32.953  0.00  0.00    -0.297 N 
ATOM      8  H   PHE A   7      20.907 -46.221 -32.870  0.00  0.00    +0.150 HD
ATOM      9  O   CYS A   6      23.794 -45.020 -33.374  0.00  0.00    -0.273 OA
BRANCH   7  10
ATOM     10  CA  PHE A   7      21.245 -44.089 -32.745  0.00  0.00    +0.153 C 
BRANCH  10  11
ATOM     11  C   PHE A   7      22.002 -43.490 -31.566  0.00  0.00    +0.241 C 
ATOM     12  N   GLN A   8      22.103 -44.270 -30.495  0.00  0.00    -0.297 N 
ATOM     13  H   GLN A   8      21.663 -45.212 -30.520  0.00  0.00    +0.150 HD
ATOM     14  O   PHE A   7      22.475 -42.354 -31.625  0.00  0.00    -0.273 OA
BRANCH  12  15
ATOM     15  CA  GLN A   8      22.806 -43.858 -29.288  0.00  0.00    +0.149 C 
BRANCH  15  16
ATOM     16  C   GLN A   8      24.269 -43.546 -29.582  0.00  0.00    +0.241 C 
ATOM     17  O   GLN A   8      24.786 -42.505 -29.181  0.00  0.00    -0.273 OA
ATOM     18  N   THR A   9      24.927 -44.454 -30.295  0.00  0.00    -0.295 N 
ATOM     19  H   THR A   9      24.429 -45.317 -30.594  0.00  0.00    +0.150 HD
BRANCH  18  20
ATOM     20  CA  THR A   9      26.324 -44.279 -30.671  0.00  0.00    +0.176 C 
BRANCH  20  21
ATOM     21  C   THR A   9      26.502 -43.074 -31.590  0.00  0.00    +0.243 C 
ATOM     22  O   THR A   9      27.440 -42.292 -31.434  0.00  0.00    -0.273 OA
ATOM     23  N   PHE A  10      25.587 -42.930 -32.543  0.00  0.00    -0.298 N 
ATOM     24  H   PHE A  10      24.813 -43.622 -32.609  0.00  0.00    +0.150 HD
BRANCH  23  25
ATOM     25  CA  PHE A  10      25.636 -41.831 -33.499  0.00  0.00    +0.141 C 
BRANCH  25  26
ATOM     26  C   PHE A  10      25.518 -40.473 -32.815  0.00  0.00    +0.227 C 
ATOM     27  O   PHE A  10      26.079 -39.484 -33.282  0.00  0.00    -0.286 OA
ENDBRANCH  25  26
BRANCH  25  28
ATOM     28  CB  PHE A  10      24.526 -41.986 -34.542  0.00  0.00    +0.054 C 
BRANCH  28  29
ATOM     29  CG  PHE A  10      24.518 -40.902 -35.580  0.00  0.00    -0.020 A 
ATOM     30  CD2 PHE A  10      23.568 -39.895 -35.544  0.00  0.00    -0.004 A 
ATOM     31  CE2 PHE A  10      23.561 -38.897 -36.500  0.00  0.00    -0.000 A 
ATOM     32  CZ  PHE A  10      24.509 -38.899 -37.504  0.00  0.00    -0.000 A 
ATOM     33  CE1 PHE A  10      25.461 -39.899 -37.550  0.00  0.00    -0.000 A 
ATOM     34  CD1 PHE A  10      25.461 -40.893 -36.594  0.00  0.00    -0.004 A 
ENDBRANCH  28  29
ENDBRANCH  25  28
ENDBRANCH  23  25
ENDBRANCH  20  21
BRANCH  20  35
ATOM     35  CB  THR A   9      26.874 -45.530 -31.373  0.00  0.00    +0.137 C 
ATOM     36  CG2 THR A   9      28.336 -45.345 -31.714  0.00  0.00    +0.034 C 
BRANCH  35  37
ATOM     37  OG1 THR A   9      26.728 -46.664 -30.511  0.00  0.00    -0.382 OA
ATOM     38  HG1 THR A   9      25.770 -46.797 -30.302  0.00  0.00    +0.210 HD
ENDBRANCH  35  37
ENDBRANCH  20  35
ENDBRANCH  18  20
ENDBRANCH  15  16
BRANCH  15  39
ATOM     39  CB  GLN A   8      22.696 -44.949 -28.223  0.00  0.00    +0.039 C 
BRANCH  39  40
ATOM     40  CG  GLN A   8      23.550 -44.726 -26.992  0.00  0.00    +0.087 C 
BRANCH  40  41
ATOM     41  CD  GLN A   8      23.286 -45.764 -25.919  0.00  0.00    +0.219 C 
ATOM     42  OE1 GLN A   8      22.243 -45.743 -25.266  0.00  0.00    -0.275 OA
ATOM     43  NE2 GLN A   8      24.227 -46.685 -25.737  0.00  0.00    -0.329 N 
ATOM     44 HE21 GLN A   8      24.097 -47.427 -25.019  0.00  0.00    +0.145 HD
ATOM     45 HE22 GLN A   8      25.093 -46.664 -26.312  0.00  0.00    +0.145 HD
ENDBRANCH  40  41
ENDBRANCH  39  40
ENDBRANCH  15  39
ENDBRANCH  12  15
ENDBRANCH  10  11
BRANCH  10  46
ATOM     46  CB  PHE A   7      19.736 -43.970 -32.502  0.00  0.00    +0.055 C 
BRANCH  46  47
ATOM     47  CG  PHE A   7      18.892 -44.255 -33.715  0.00  0.00    -0.020 A 
ATOM     48  CD2 PHE A   7      17.510 -44.286 -33.616  0.00  0.00    -0.004 A 
ATOM     49  CE2 PHE A   7      16.726 -44.540 -34.725  0.00  0.00    -0.000 A 
ATOM     50  CZ  PHE A   7      17.317 -44.765 -35.950  0.00  0.00    -0.000 A 
ATOM     51  CE1 PHE A   7      18.693 -44.736 -36.066  0.00  0.00    -0.000 A 
ATOM     52  CD1 PHE A   7      19.474 -44.478 -34.952  0.00  0.00    -0.004 A 
ENDBRANCH  46  47
ENDBRANCH  10  46
ENDBRANCH   7  10
ENDBRANCH   5   6
BRANCH   5  53
ATOM     53  CB  CYS A   6      22.583 -47.813 -34.756  0.00  0.00    +0.098 C 
ATOM     54  SG  CYS A   6      23.153 -46.875 -36.194  0.00  0.00    -0.080 S 
ENDBRANCH   5  53
ENDBRANCH   3   5
BRANCH   1  55
ATOM     55  CA  TYR A   5      22.181 -48.707 -29.983  0.00  0.00    +0.153 C 
BRANCH  55  58
ATOM     56  C   ASN A   4      19.957 -47.789 -30.183  0.00  0.00    +0.241 C 
ATOM     57  O   ASN A   4      20.331 -46.686 -29.787  0.00  0.00    -0.273 OA
ATOM     58  N   TYR A   5      20.774 -48.825 -30.316  0.00  0.00    -0.297 N 
ATOM     59  H   TYR A   5      20.402 -49.732 -30.663  0.00  0.00    +0.150 HD
BRANCH  56  60
ATOM     60  CA  ASN A   4      18.510 -48.035 -30.563  0.00  0.00    +0.158 C 
BRANCH  60  62
ATOM     61  C   LEU A   3      18.943 -48.308 -32.936  0.00  0.00    +0.241 C 
ATOM     62  N   ASN A   4      18.421 -48.788 -31.811  0.00  0.00    -0.297 N 
ATOM     63  H   ASN A   4      17.943 -49.712 -31.820  0.00  0.00    +0.150 HD
ATOM     64  O   LEU A   3      19.460 -47.194 -33.007  0.00  0.00    -0.273 OA
BRANCH  61  65
ATOM     65  CA  LEU A   3      18.862 -49.198 -34.171  0.00  0.00    +0.149 C 
BRANCH  65  68
ATOM     66  C   LEU A   2      20.179 -51.114 -33.462  0.00  0.00    +0.241 C 
ATOM     67  O   LEU A   2      21.196 -50.425 -33.362  0.00  0.00    -0.273 OA
ATOM     68  N   LEU A   3      19.006 -50.613 -33.839  0.00  0.00    -0.297 N 
ATOM     69  H   LEU A   3      18.178 -51.239 -33.898  0.00  0.00    +0.150 HD
BRANCH  66  70
ATOM     70  CA  LEU A   2      20.221 -52.606 -33.138  0.00  0.00    +0.149 C 
BRANCH  70  73
ATOM     71  C   ASN A   1      18.655 -52.567 -31.271  0.00  0.00    +0.239 C 
ATOM     72  O   ASN A   1      19.296 -51.700 -30.680  0.00  0.00    -0.274 OA
ATOM     73  N   LEU A   2      19.006 -53.046 -32.461  0.00  0.00    -0.297 N 
ATOM     74  H   LEU A   2      18.398 -53.753 -32.921  0.00  0.00    +0.150 HD
BRANCH  71  75
ATOM     75  CA  ASN A   1      17.391 -53.153 -30.654  0.00  0.00    +0.154 C 
BRANCH  75  76
ATOM     76  N   ASN A   1      16.263 -53.126 -31.573  0.00  0.00    -0.238 NA
ATOM     77  H   ASN A   1      15.892 -54.022 -31.949  0.00  0.00    +0.142 HD
ENDBRANCH  75  76
BRANCH  75  78
ATOM     78  CB  ASN A   1      17.662 -54.583 -30.187  0.00  0.00    +0.111 C 
BRANCH  78  79
ATOM     79  CG  ASN A   1      16.540 -55.139 -29.335  0.00  0.00    +0.221 C 
ATOM     80  OD1 ASN A   1      15.962 -54.431 -28.511  0.00  0.00    -0.275 OA
ATOM     81  ND2 ASN A   1      16.223 -56.414 -29.532  0.00  0.00    -0.329 N 
ATOM     82 HD21 ASN A   1      15.459 -56.851 -28.978  0.00  0.00    +0.145 HD
ATOM     83 HD22 ASN A   1      16.739 -56.975 -30.240  0.00  0.00    +0.145 HD
ENDBRANCH  78  79
ENDBRANCH  75  78
ENDBRANCH  71  75
ENDBRANCH  70  73
BRANCH  70  84
ATOM     84  CB  LEU A   2      20.447 -53.419 -34.416  0.00  0.00    +0.029 C 
BRANCH  84  85
ATOM     85  CG  LEU A   2      20.661 -54.923 -34.236  0.00  0.00    +0.002 C 
ATOM     86  CD2 LEU A   2      21.852 -55.200 -33.332  0.00  0.00    +0.000 C 
ATOM     87  CD1 LEU A   2      20.830 -55.618 -35.581  0.00  0.00    +0.000 C 
ENDBRANCH  84  85
ENDBRANCH  70  84
ENDBRANCH  66  70
ENDBRANCH  65  68
BRANCH  65  88
ATOM     88  CB  LEU A   3      17.544 -48.939 -34.905  0.00  0.00    +0.029 C 
BRANCH  88  89
ATOM     89  CG  LEU A   3      17.531 -49.184 -36.416  0.00  0.00    +0.002 C 
ATOM     90  CD2 LEU A   3      16.188 -48.780 -37.000  0.00  0.00    +0.000 C 
ATOM     91  CD1 LEU A   3      18.663 -48.433 -37.102  0.00  0.00    +0.000 C 
ENDBRANCH  88  89
ENDBRANCH  65  88
ENDBRANCH  61  65
ENDBRANCH  60  62
BRANCH  60  92
ATOM     92  CB  ASN A   4      17.796 -48.762 -29.426  0.00  0.00    +0.114 C 
BRANCH  92  93
ATOM     93  CG  ASN A   4      16.294 -48.587 -29.476  0.00  0.00    +0.222 C 
ATOM     94  ND2 ASN A   4      15.580 -49.368 -28.673  0.00  0.00    -0.329 N 
ATOM     95 HD21 ASN A   4      16.058 -50.057 -28.058  0.00  0.00    +0.145 HD
ATOM     96 HD22 ASN A   4      14.543 -49.290 -28.659  0.00  0.00    +0.145 HD
ATOM     97  OD1 ASN A   4      15.779 -47.754 -30.225  0.00  0.00    -0.275 OA
ENDBRANCH  92  93
ENDBRANCH  60  92
ENDBRANCH  56  60
ENDBRANCH  55  58
BRANCH  55  98
ATOM     98  CB  TYR A   5      22.809 -50.087 -29.814  0.00  0.00    +0.055 C 
BRANCH  98  99
ATOM     99  CG  TYR A   5      24.189 -50.033 -29.221  0.00  0.00    -0.020 A 
ATOM    100  CD2 TYR A   5      24.398 -50.242 -27.851  0.00  0.00    -0.001 A 
ATOM    101  CE2 TYR A   5      25.668 -50.183 -27.321  0.00  0.00    +0.036 A 
ATOM    102  CZ  TYR A   5      26.750 -49.901 -28.159  0.00  0.00    +0.134 A 
ATOM    103  CE1 TYR A   5      26.570 -49.724 -29.519  0.00  0.00    +0.036 A 
ATOM    104  CD1 TYR A   5      25.294 -49.759 -30.033  0.00  0.00    -0.001 A 
BRANCH 102 105
ATOM    105  OH  TYR A   5      28.027 -49.846 -27.646  0.00  0.00    -0.506 OA
ATOM    106  HH  TYR A   5      28.258 -50.721 -27.245  0.00  0.00    +0.292 HD
ENDBRANCH 102 105
ENDBRANCH  98  99
ENDBRANCH  55  98
ENDBRANCH   1  55
TORSDOF 41
REMARK  Name = ../refined-set-2016/4p6w/4p6w_pocket.pdb
REMARK  262 active torsions:
REMARK  status: ('A' for Active; 'I' for Inactive)
REMARK    1  A    between atoms: _1  and  _3
REMARK    2  A    between atoms: _3  and  _4
REMARK    3  A    between atoms: _3  and  _6
REMARK    4  A    between atoms: _6  and  _7
REMARK    5  A    between atoms: _10  and  _12
REMARK    6  A    between atoms: _12  and  _13
REMARK    7  A    between atoms: _12  and  _15
REMARK    8  A    between atoms: _15  and  _16
REMARK    9  A    between atoms: _19  and  _21
REMARK   10  A    between atoms: _21  and  _22
REMARK   11  A    between atoms: _21  and  _24
REMARK   12  A    between atoms: _24  and  _25
REMARK   13  A    between atoms: _35  and  _37
REMARK   14  A    between atoms: _37  and  _38
REMARK   15  A    between atoms: _37  and  _40
REMARK   16  A    between atoms: _40  and  _41
REMARK   17  A    between atoms: _44  and  _46
REMARK   18  A    between atoms: _46  and  _47
REMARK   19  A    between atoms: _46  and  _49
REMARK   20  A    between atoms: _49  and  _50
REMARK   21  A    between atoms: _50  and  _51
REMARK   22  A    between atoms: _53  and  _55
REMARK   23  A    between atoms: _55  and  _56
REMARK   24  A    between atoms: _55  and  _58
REMARK   25  A    between atoms: _58  and  _59
REMARK   26  A    between atoms: _62  and  _64
REMARK   27  A    between atoms: _64  and  _65
REMARK   28  A    between atoms: _64  and  _67
REMARK   29  A    between atoms: _67  and  _68
REMARK   30  A    between atoms: _71  and  _73
REMARK   31  A    between atoms: _73  and  _74
REMARK   32  A    between atoms: _73  and  _76
REMARK   33  A    between atoms: _76  and  _77
REMARK   34  A    between atoms: _80  and  _82
REMARK   35  A    between atoms: _82  and  _83
REMARK   36  A    between atoms: _82  and  _85
REMARK   37  A    between atoms: _85  and  _86
REMARK   38  A    between atoms: _91  and  _93
REMARK   39  A    between atoms: _93  and  _94
REMARK   40  A    between atoms: _93  and  _96
REMARK   41  A    between atoms: _96  and  _97
REMARK   42  A    between atoms: _97  and  _98
REMARK   43  A    between atoms: _100  and  _102
REMARK   44  A    between atoms: _102  and  _103
REMARK   45  A    between atoms: _102  and  _105
REMARK   46  A    between atoms: _105  and  _106
REMARK   47  A    between atoms: _109  and  _111
REMARK   48  A    between atoms: _111  and  _112
REMARK   49  A    between atoms: _114  and  _116
REMARK   50  A    between atoms: _116  and  _117
REMARK   51  A    between atoms: _119  and  _121
REMARK   52  A    between atoms: _121  and  _122
REMARK   53  A    between atoms: _121  and  _124
REMARK   54  A    between atoms: _124  and  _125
REMARK   55  A    between atoms: _125  and  _126
REMARK   56  A    between atoms: _126  and  _127
REMARK   57  A    between atoms: _136  and  _138
REMARK   58  A    between atoms: _138  and  _139
REMARK   59  A    between atoms: _138  and  _141
REMARK   60  A    between atoms: _141  and  _142
REMARK   61  A    between atoms: _142  and  _143
REMARK   62  A    between atoms: _148  and  _150
REMARK   63  A    between atoms: _150  and  _151
REMARK   64  A    between atoms: _150  and  _153
REMARK   65  A    between atoms: _156  and  _158
REMARK   66  A    between atoms: _158  and  _159
REMARK   67  A    between atoms: _158  and  _161
REMARK   68  A    between atoms: _161  and  _162
REMARK   69  A    between atoms: _172  and  _174
REMARK   70  A    between atoms: _174  and  _175
REMARK   71  A    between atoms: _174  and  _177
REMARK   72  A    between atoms: _177  and  _178
REMARK   73  A    between atoms: _178  and  _179
REMARK   74  A    between atoms: _181  and  _183
REMARK   75  A    between atoms: _183  and  _184
REMARK   76  A    between atoms: _187  and  _189
REMARK   77  A    between atoms: _189  and  _190
REMARK   78  A    between atoms: _189  and  _192
REMARK   79  A    between atoms: _192  and  _193
REMARK   80  A    between atoms: _196  and  _198
REMARK   81  A    between atoms: _198  and  _199
REMARK   82  A    between atoms: _198  and  _201
REMARK   83  A    between atoms: _201  and  _202
REMARK   84  A    between atoms: _202  and  _203
REMARK   85  A    between atoms: _205  and  _207
REMARK   86  A    between atoms: _207  and  _208
REMARK   87  A    between atoms: _211  and  _213
REMARK   88  A    between atoms: _213  and  _214
REMARK   89  A    between atoms: _213  and  _216
REMARK   90  A    between atoms: _216  and  _217
REMARK   91  A    between atoms: _223  and  _225
REMARK   92  A    between atoms: _225  and  _226
REMARK   93  A    between atoms: _229  and  _231
REMARK   94  A    between atoms: _231  and  _232
REMARK   95  A    between atoms: _231  and  _234
REMARK   96  A    between atoms: _234  and  _235
REMARK   97  A    between atoms: _238  and  _240
REMARK   98  A    between atoms: _240  and  _241
REMARK   99  A    between atoms: _243  and  _245
REMARK  100  A    between atoms: _245  and  _246
REMARK  101  A    between atoms: _245  and  _248
REMARK  102  A    between atoms: _248  and  _249
REMARK  103  A    between atoms: _249  and  _250
REMARK  104  A    between atoms: _250  and  _251
REMARK  105  A    between atoms: _260  and  _262
REMARK  106  A    between atoms: _262  and  _263
REMARK  107  A    between atoms: _262  and  _265
REMARK  108  A    between atoms: _265  and  _266
REMARK  109  A    between atoms: _268  and  _270
REMARK  110  A    between atoms: _270  and  _271
REMARK  111  A    between atoms: _270  and  _273
REMARK  112  A    between atoms: _273  and  _274
REMARK  113  A    between atoms: _277  and  _279
REMARK  114  A    between atoms: _279  and  _280
REMARK  115  A    between atoms: _279  and  _282
REMARK  116  A    between atoms: _282  and  _283
REMARK  117  A    between atoms: _288  and  _289
REMARK  118  A    between atoms: _291  and  _293
REMARK  119  A    between atoms: _293  and  _294
REMARK  120  A    between atoms: _293  and  _296
REMARK  121  A    between atoms: _296  and  _297
REMARK  122  A    between atoms: _303  and  _305
REMARK  123  A    between atoms: _305  and  _306
REMARK  124  A    between atoms: _309  and  _311
REMARK  125  A    between atoms: _311  and  _312
REMARK  126  A    between atoms: _311  and  _314
REMARK  127  A    between atoms: _314  and  _315
REMARK  128  A    between atoms: _318  and  _320
REMARK  129  A    between atoms: _320  and  _321
REMARK  130  A    between atoms: _320  and  _323
REMARK  131  A    between atoms: _323  and  _324
REMARK  132  A    between atoms: _327  and  _329
REMARK  133  A    between atoms: _329  and  _330
REMARK  134  A    between atoms: _329  and  _332
REMARK  135  A    between atoms: _332  and  _333
REMARK  136  A    between atoms: _333  and  _334
REMARK  137  A    between atoms: _334  and  _335
REMARK  138  A    between atoms: _344  and  _346
REMARK  139  A    between atoms: _346  and  _347
REMARK  140  A    between atoms: _346  and  _349
REMARK  141  A    between atoms: _349  and  _350
REMARK  142  A    between atoms: _350  and  _351
REMARK  143  A    between atoms: _353  and  _355
REMARK  144  A    between atoms: _355  and  _356
REMARK  145  A    between atoms: _355  and  _358
REMARK  146  A    between atoms: _358  and  _359
REMARK  147  A    between atoms: _363  and  _364
REMARK  148  A    between atoms: _369  and  _371
REMARK  149  A    between atoms: _371  and  _372
REMARK  150  A    between atoms: _371  and  _374
REMARK  151  A    between atoms: _376  and  _378
REMARK  152  A    between atoms: _378  and  _379
REMARK  153  A    between atoms: _378  and  _381
REMARK  154  A    between atoms: _381  and  _382
REMARK  155  A    between atoms: _382  and  _383
REMARK  156  A    between atoms: _385  and  _387
REMARK  157  A    between atoms: _387  and  _388
REMARK  158  A    between atoms: _387  and  _390
REMARK  159  A    between atoms: _390  and  _391
REMARK  160  A    between atoms: _396  and  _397
REMARK  161  A    between atoms: _399  and  _401
REMARK  162  A    between atoms: _401  and  _402
REMARK  163  A    between atoms: _401  and  _404
REMARK  164  A    between atoms: _404  and  _405
REMARK  165  A    between atoms: _408  and  _410
REMARK  166  A    between atoms: _410  and  _411
REMARK  167  A    between atoms: _410  and  _413
REMARK  168  A    between atoms: _413  and  _414
REMARK  169  A    between atoms: _414  and  _415
REMARK  170  A    between atoms: _420  and  _422
REMARK  171  A    between atoms: _422  and  _423
REMARK  172  A    between atoms: _422  and  _425
REMARK  173  A    between atoms: _427  and  _429
REMARK  174  A    between atoms: _429  and  _430
REMARK  175  A    between atoms: _429  and  _432
REMARK  176  A    between atoms: _432  and  _433
REMARK  177  A    between atoms: _433  and  _434
REMARK  178  A    between atoms: _434  and  _435
REMARK  179  A    between atoms: _435  and  _436
REMARK  180  A    between atoms: _440  and  _442
REMARK  181  A    between atoms: _442  and  _443
REMARK  182  A    between atoms: _442  and  _445
REMARK  183  A    between atoms: _445  and  _446
REMARK  184  A    between atoms: _451  and  _453
REMARK  185  A    between atoms: _453  and  _454
REMARK  186  A    between atoms: _453  and  _456
REMARK  187  A    between atoms: _456  and  _457
REMARK  188  A    between atoms: _457  and  _458
REMARK  189  A    between atoms: _460  and  _462
REMARK  190  A    between atoms: _462  and  _463
REMARK  191  A    between atoms: _462  and  _465
REMARK  192  A    between atoms: _468  and  _470
REMARK  193  A    between atoms: _470  and  _471
REMARK  194  A    between atoms: _470  and  _473
REMARK  195  A    between atoms: _476  and  _478
REMARK  196  A    between atoms: _478  and  _479
REMARK  197  A    between atoms: _478  and  _481
REMARK  198  A    between atoms: _481  and  _482
REMARK  199  A    between atoms: _487  and  _489
REMARK  200  A    between atoms: _489  and  _490
REMARK  201  A    between atoms: _489  and  _492
REMARK  202  A    between atoms: _492  and  _493
REMARK  203  A    between atoms: _496  and  _498
REMARK  204  A    between atoms: _498  and  _499
REMARK  205  A    between atoms: _498  and  _501
REMARK  206  A    between atoms: _501  and  _502
REMARK  207  A    between atoms: _505  and  _507
REMARK  208  A    between atoms: _507  and  _508
REMARK  209  A    between atoms: _507  and  _510
REMARK  210  A    between atoms: _510  and  _511
REMARK  211  A    between atoms: _516  and  _518
REMARK  212  A    between atoms: _518  and  _519
REMARK  213  A    between atoms: _518  and  _521
REMARK  214  A    between atoms: _521  and  _522
REMARK  215  A    between atoms: _527  and  _528
REMARK  216  A    between atoms: _530  and  _532
REMARK  217  A    between atoms: _532  and  _533
REMARK  218  A    between atoms: _532  and  _535
REMARK  219  A    between atoms: _537  and  _539
REMARK  220  A    between atoms: _539  and  _540
REMARK  221  A    between atoms: _539  and  _542
REMARK  222  A    between atoms: _542  and  _543
REMARK  223  A    between atoms: _549  and  _551
REMARK  224  A    between atoms: _551  and  _552
REMARK  225  A    between atoms: _551  and  _554
REMARK  226  A    between atoms: _554  and  _555
REMARK  227  A    between atoms: _555  and  _556
REMARK  228  A    between atoms: _561  and  _563
REMARK  229  A    between atoms: _563  and  _564
REMARK  230  A    between atoms: _563  and  _566
REMARK  231  A    between atoms: _566  and  _567
REMARK  232  A    between atoms: _570  and  _572
REMARK  233  A    between atoms: _572  and  _573
REMARK  234  A    between atoms: _572  and  _575
REMARK  235  A    between atoms: _575  and  _576
REMARK  236  A    between atoms: _582  and  _584
REMARK  237  A    between atoms: _584  and  _585
REMARK  238  A    between atoms: _584  and  _587
REMARK  239  A    between atoms: _587  and  _588
REMARK  240  A    between atoms: _588  and  _589
REMARK  241  A    between atoms: _591  and  _593
REMARK  242  A    between atoms: _593  and  _594
REMARK  243  A    between atoms: _593  and  _596
REMARK  244  A    between atoms: _596  and  _597
REMARK  245  A    between atoms: _600  and  _602
REMARK  246  A    between atoms: _602  and  _603
REMARK  247  A    between atoms: _602  and  _605
REMARK  248  A    between atoms: _605  and  _606
REMARK  249  A    between atoms: _606  and  _607
REMARK  250  A    between atoms: _610  and  _612
REMARK  251  A    between atoms: _612  and  _613
REMARK  252  A    between atoms: _612  and  _615
REMARK  253  A    between atoms: _615  and  _616
REMARK  254  A    between atoms: _623  and  _624
REMARK  255  A    between atoms: _629  and  _631
REMARK  256  A    between atoms: _631  and  _632
REMARK  257  A    between atoms: _631  and  _634
REMARK  258  A    between atoms: _634  and  _635
REMARK  259  A    between atoms: _638  and  _640
REMARK  260  A    between atoms: _640  and  _641
REMARK  261  A    between atoms: _640  and  _643
REMARK  262  A    between atoms: _643  and  _644
REMARK                            x       y       z     vdW  Elec       q    Type
REMARK                         _______ _______ _______ _____ _____    ______ ____
ROOT
ATOM      1  CA  MET A   1      32.947 -42.205 -28.384  0.00  0.00    +0.134 C 
ENDROOT
BRANCH   1   2
ATOM      2  N   MET A   1      32.414 -40.923 -27.924  0.00  0.00    -0.239 NA
ATOM      3  H   MET A   1      31.517 -40.568 -28.312  0.00  0.00    +0.142 HD
ENDBRANCH   1   2
BRANCH   1   4
ATOM      4  C   MET A   1      33.823 -42.123 -29.634  0.00  0.00    +0.224 C 
ATOM      5  O   MET A   1      34.563 -43.062 -29.918  0.00  0.00    -0.287 OA
ENDBRANCH   1   4
BRANCH   1   6
ATOM      6  CB  MET A   1      31.809 -43.198 -28.631  0.00  0.00    +0.037 C 
BRANCH   6   7
ATOM      7  CG  MET A   1      31.313 -43.884 -27.367  0.00  0.00    +0.059 C 
BRANCH   7   8
ATOM      8  SD  MET A   1      30.201 -45.268 -27.681  0.00  0.00    -0.139 S 
ATOM      9  CE  MET A   1      31.353 -46.642 -27.727  0.00  0.00    +0.069 C 
ENDBRANCH   7   8
ENDBRANCH   6   7
ENDBRANCH   1   6
TORSDOF 5
REMARK  Name = ../refined-set-2016/4p6w/4p6w_pocket.pdb
REMARK  262 active torsions:
REMARK  status: ('A' for Active; 'I' for Inactive)
REMARK    1  A    between atoms: _1  and  _3
REMARK    2  A    between atoms: _3  and  _4
REMARK    3  A    between atoms: _3  and  _6
REMARK    4  A    between atoms: _6  and  _7
REMARK    5  A    between atoms: _10  and  _12
REMARK    6  A    between atoms: _12  and  _13
REMARK    7  A    between atoms: _12  and  _15
REMARK    8  A    between atoms: _15  and  _16
REMARK    9  A    between atoms: _19  and  _21
REMARK   10  A    between atoms: _21  and  _22
REMARK   11  A    between atoms: _21  and  _24
REMARK   12  A    between atoms: _24  and  _25
REMARK   13  A    between atoms: _35  and  _37
REMARK   14  A    between atoms: _37  and  _38
REMARK   15  A    between atoms: _37  and  _40
REMARK   16  A    between atoms: _40  and  _41
REMARK   17  A    between atoms: _44  and  _46
REMARK   18  A    between atoms: _46  and  _47
REMARK   19  A    between atoms: _46  and  _49
REMARK   20  A    between atoms: _49  and  _50
REMARK   21  A    between atoms: _50  and  _51
REMARK   22  A    between atoms: _53  and  _55
REMARK   23  A    between atoms: _55  and  _56
REMARK   24  A    between atoms: _55  and  _58
REMARK   25  A    between atoms: _58  and  _59
REMARK   26  A    between atoms: _62  and  _64
REMARK   27  A    between atoms: _64  and  _65
REMARK   28  A    between atoms: _64  and  _67
REMARK   29  A    between atoms: _67  and  _68
REMARK   30  A    between atoms: _71  and  _73
REMARK   31  A    between atoms: _73  and  _74
REMARK   32  A    between atoms: _73  and  _76
REMARK   33  A    between atoms: _76  and  _77
REMARK   34  A    between atoms: _80  and  _82
REMARK   35  A    between atoms: _82  and  _83
REMARK   36  A    between atoms: _82  and  _85
REMARK   37  A    between atoms: _85  and  _86
REMARK   38  A    between atoms: _91  and  _93
REMARK   39  A    between atoms: _93  and  _94
REMARK   40  A    between atoms: _93  and  _96
REMARK   41  A    between atoms: _96  and  _97
REMARK   42  A    between atoms: _97  and  _98
REMARK   43  A    between atoms: _100  and  _102
REMARK   44  A    between atoms: _102  and  _103
REMARK   45  A    between atoms: _102  and  _105
REMARK   46  A    between atoms: _105  and  _106
REMARK   47  A    between atoms: _109  and  _111
REMARK   48  A    between atoms: _111  and  _112
REMARK   49  A    between atoms: _114  and  _116
REMARK   50  A    between atoms: _116  and  _117
REMARK   51  A    between atoms: _119  and  _121
REMARK   52  A    between atoms: _121  and  _122
REMARK   53  A    between atoms: _121  and  _124
REMARK   54  A    between atoms: _124  and  _125
REMARK   55  A    between atoms: _125  and  _126
REMARK   56  A    between atoms: _126  and  _127
REMARK   57  A    between atoms: _136  and  _138
REMARK   58  A    between atoms: _138  and  _139
REMARK   59  A    between atoms: _138  and  _141
REMARK   60  A    between atoms: _141  and  _142
REMARK   61  A    between atoms: _142  and  _143
REMARK   62  A    between atoms: _148  and  _150
REMARK   63  A    between atoms: _150  and  _151
REMARK   64  A    between atoms: _150  and  _153
REMARK   65  A    between atoms: _156  and  _158
REMARK   66  A    between atoms: _158  and  _159
REMARK   67  A    between atoms: _158  and  _161
REMARK   68  A    between atoms: _161  and  _162
REMARK   69  A    between atoms: _172  and  _174
REMARK   70  A    between atoms: _174  and  _175
REMARK   71  A    between atoms: _174  and  _177
REMARK   72  A    between atoms: _177  and  _178
REMARK   73  A    between atoms: _178  and  _179
REMARK   74  A    between atoms: _181  and  _183
REMARK   75  A    between atoms: _183  and  _184
REMARK   76  A    between atoms: _187  and  _189
REMARK   77  A    between atoms: _189  and  _190
REMARK   78  A    between atoms: _189  and  _192
REMARK   79  A    between atoms: _192  and  _193
REMARK   80  A    between atoms: _196  and  _198
REMARK   81  A    between atoms: _198  and  _199
REMARK   82  A    between atoms: _198  and  _201
REMARK   83  A    between atoms: _201  and  _202
REMARK   84  A    between atoms: _202  and  _203
REMARK   85  A    between atoms: _205  and  _207
REMARK   86  A    between atoms: _207  and  _208
REMARK   87  A    between atoms: _211  and  _213
REMARK   88  A    between atoms: _213  and  _214
REMARK   89  A    between atoms: _213  and  _216
REMARK   90  A    between atoms: _216  and  _217
REMARK   91  A    between atoms: _223  and  _225
REMARK   92  A    between atoms: _225  and  _226
REMARK   93  A    between atoms: _229  and  _231
REMARK   94  A    between atoms: _231  and  _232
REMARK   95  A    between atoms: _231  and  _234
REMARK   96  A    between atoms: _234  and  _235
REMARK   97  A    between atoms: _238  and  _240
REMARK   98  A    between atoms: _240  and  _241
REMARK   99  A    between atoms: _243  and  _245
REMARK  100  A    between atoms: _245  and  _246
REMARK  101  A    between atoms: _245  and  _248
REMARK  102  A    between atoms: _248  and  _249
REMARK  103  A    between atoms: _249  and  _250
REMARK  104  A    between atoms: _250  and  _251
REMARK  105  A    between atoms: _260  and  _262
REMARK  106  A    between atoms: _262  and  _263
REMARK  107  A    between atoms: _262  and  _265
REMARK  108  A    between atoms: _265  and  _266
REMARK  109  A    between atoms: _268  and  _270
REMARK  110  A    between atoms: _270  and  _271
REMARK  111  A    between atoms: _270  and  _273
REMARK  112  A    between atoms: _273  and  _274
REMARK  113  A    between atoms: _277  and  _279
REMARK  114  A    between atoms: _279  and  _280
REMARK  115  A    between atoms: _279  and  _282
REMARK  116  A    between atoms: _282  and  _283
REMARK  117  A    between atoms: _288  and  _289
REMARK  118  A    between atoms: _291  and  _293
REMARK  119  A    between atoms: _293  and  _294
REMARK  120  A    between atoms: _293  and  _296
REMARK  121  A    between atoms: _296  and  _297
REMARK  122  A    between atoms: _303  and  _305
REMARK  123  A    between atoms: _305  and  _306
REMARK  124  A    between atoms: _309  and  _311
REMARK  125  A    between atoms: _311  and  _312
REMARK  126  A    between atoms: _311  and  _314
REMARK  127  A    between atoms: _314  and  _315
REMARK  128  A    between atoms: _318  and  _320
REMARK  129  A    between atoms: _320  and  _321
REMARK  130  A    between atoms: _320  and  _323
REMARK  131  A    between atoms: _323  and  _324
REMARK  132  A    between atoms: _327  and  _329
REMARK  133  A    between atoms: _329  and  _330
REMARK  134  A    between atoms: _329  and  _332
REMARK  135  A    between atoms: _332  and  _333
REMARK  136  A    between atoms: _333  and  _334
REMARK  137  A    between atoms: _334  and  _335
REMARK  138  A    between atoms: _344  and  _346
REMARK  139  A    between atoms: _346  and  _347
REMARK  140  A    between atoms: _346  and  _349
REMARK  141  A    between atoms: _349  and  _350
REMARK  142  A    between atoms: _350  and  _351
REMARK  143  A    between atoms: _353  and  _355
REMARK  144  A    between atoms: _355  and  _356
REMARK  145  A    between atoms: _355  and  _358
REMARK  146  A    between atoms: _358  and  _359
REMARK  147  A    between atoms: _363  and  _364
REMARK  148  A    between atoms: _369  and  _371
REMARK  149  A    between atoms: _371  and  _372
REMARK  150  A    between atoms: _371  and  _374
REMARK  151  A    between atoms: _376  and  _378
REMARK  152  A    between atoms: _378  and  _379
REMARK  153  A    between atoms: _378  and  _381
REMARK  154  A    between atoms: _381  and  _382
REMARK  155  A    between atoms: _382  and  _383
REMARK  156  A    between atoms: _385  and  _387
REMARK  157  A    between atoms: _387  and  _388
REMARK  158  A    between atoms: _387  and  _390
REMARK  159  A    between atoms: _390  and  _391
REMARK  160  A    between atoms: _396  and  _397
REMARK  161  A    between atoms: _399  and  _401
REMARK  162  A    between atoms: _401  and  _402
REMARK  163  A    between atoms: _401  and  _404
REMARK  164  A    between atoms: _404  and  _405
REMARK  165  A    between atoms: _408  and  _410
REMARK  166  A    between atoms: _410  and  _411
REMARK  167  A    between atoms: _410  and  _413
REMARK  168  A    between atoms: _413  and  _414
REMARK  169  A    between atoms: _414  and  _415
REMARK  170  A    between atoms: _420  and  _422
REMARK  171  A    between atoms: _422  and  _423
REMARK  172  A    between atoms: _422  and  _425
REMARK  173  A    between atoms: _427  and  _429
REMARK  174  A    between atoms: _429  and  _430
REMARK  175  A    between atoms: _429  and  _432
REMARK  176  A    between atoms: _432  and  _433
REMARK  177  A    between atoms: _433  and  _434
REMARK  178  A    between atoms: _434  and  _435
REMARK  179  A    between atoms: _435  and  _436
REMARK  180  A    between atoms: _440  and  _442
REMARK  181  A    between atoms: _442  and  _443
REMARK  182  A    between atoms: _442  and  _445
REMARK  183  A    between atoms: _445  and  _446
REMARK  184  A    between atoms: _451  and  _453
REMARK  185  A    between atoms: _453  and  _454
REMARK  186  A    between atoms: _453  and  _456
REMARK  187  A    between atoms: _456  and  _457
REMARK  188  A    between atoms: _457  and  _458
REMARK  189  A    between atoms: _460  and  _462
REMARK  190  A    between atoms: _462  and  _463
REMARK  191  A    between atoms: _462  and  _465
REMARK  192  A    between atoms: _468  and  _470
REMARK  193  A    between atoms: _470  and  _471
REMARK  194  A    between atoms: _470  and  _473
REMARK  195  A    between atoms: _476  and  _478
REMARK  196  A    between atoms: _478  and  _479
REMARK  197  A    between atoms: _478  and  _481
REMARK  198  A    between atoms: _481  and  _482
REMARK  199  A    between atoms: _487  and  _489
REMARK  200  A    between atoms: _489  and  _490
REMARK  201  A    between atoms: _489  and  _492
REMARK  202  A    between atoms: _492  and  _493
REMARK  203  A    between atoms: _496  and  _498
REMARK  204  A    between atoms: _498  and  _499
REMARK  205  A    between atoms: _498  and  _501
REMARK  206  A    between atoms: _501  and  _502
REMARK  207  A    between atoms: _505  and  _507
REMARK  208  A    between atoms: _507  and  _508
REMARK  209  A    between atoms: _507  and  _510
REMARK  210  A    between atoms: _510  and  _511
REMARK  211  A    between atoms: _516  and  _518
REMARK  212  A    between atoms: _518  and  _519
REMARK  213  A    between atoms: _518  and  _521
REMARK  214  A    between atoms: _521  and  _522
REMARK  215  A    between atoms: _527  and  _528
REMARK  216  A    between atoms: _530  and  _532
REMARK  217  A    between atoms: _532  and  _533
REMARK  218  A    between atoms: _532  and  _535
REMARK  219  A    between atoms: _537  and  _539
REMARK  220  A    between atoms: _539  and  _540
REMARK  221  A    between atoms: _539  and  _542
REMARK  222  A    between atoms: _542  and  _543
REMARK  223  A    between atoms: _549  and  _551
REMARK  224  A    between atoms: _551  and  _552
REMARK  225  A    between atoms: _551  and  _554
REMARK  226  A    between atoms: _554  and  _555
REMARK  227  A    between atoms: _555  and  _556
REMARK  228  A    between atoms: _561  and  _563
REMARK  229  A    between atoms: _563  and  _564
REMARK  230  A    between atoms: _563  and  _566
REMARK  231  A    between atoms: _566  and  _567
REMARK  232  A    between atoms: _570  and  _572
REMARK  233  A    between atoms: _572  and  _573
REMARK  234  A    between atoms: _572  and  _575
REMARK  235  A    between atoms: _575  and  _576
REMARK  236  A    between atoms: _582  and  _584
REMARK  237  A    between atoms: _584  and  _585
REMARK  238  A    between atoms: _584  and  _587
REMARK  239  A    between atoms: _587  and  _588
REMARK  240  A    between atoms: _588  and  _589
REMARK  241  A    between atoms: _591  and  _593
REMARK  242  A    between atoms: _593  and  _594
REMARK  243  A    between atoms: _593  and  _596
REMARK  244  A    between atoms: _596  and  _597
REMARK  245  A    between atoms: _600  and  _602
REMARK  246  A    between atoms: _602  and  _603
REMARK  247  A    between atoms: _602  and  _605
REMARK  248  A    between atoms: _605  and  _606
REMARK  249  A    between atoms: _606  and  _607
REMARK  250  A    between atoms: _610  and  _612
REMARK  251  A    between atoms: _612  and  _613
REMARK  252  A    between atoms: _612  and  _615
REMARK  253  A    between atoms: _615  and  _616
REMARK  254  A    between atoms: _623  and  _624
REMARK  255  A    between atoms: _629  and  _631
REMARK  256  A    between atoms: _631  and  _632
REMARK  257  A    between atoms: _631  and  _634
REMARK  258  A    between atoms: _634  and  _635
REMARK  259  A    between atoms: _638  and  _640
REMARK  260  A    between atoms: _640  and  _641
REMARK  261  A    between atoms: _640  and  _643
REMARK  262  A    between atoms: _643  and  _644
REMARK                            x       y       z     vdW  Elec       q    Type
REMARK                         _______ _______ _______ _____ _____    ______ ____
ROOT
ATOM      1  C   GLU A   2      31.733 -43.236 -38.369  0.00  0.00    +0.241 C 
ATOM      2  O   GLU A   2      31.649 -44.462 -38.331  0.00  0.00    -0.273 OA
ATOM      3  N   PHE A   3      30.893 -42.461 -39.050  0.00  0.00    -0.297 N 
ATOM      4  H   PHE A   3      30.981 -41.430 -38.949  0.00  0.00    +0.150 HD
ENDROOT
BRANCH   1   5
ATOM      5  CA  GLU A   2      32.839 -42.501 -37.622  0.00  0.00    +0.149 C 
BRANCH   5   8
ATOM      6  C   ILE A   1      32.582 -42.765 -35.219  0.00  0.00    +0.238 C 
ATOM      7  O   ILE A   1      31.653 -41.957 -35.186  0.00  0.00    -0.274 OA
ATOM      8  N   GLU A   2      33.185 -43.124 -36.348  0.00  0.00    -0.297 N 
ATOM      9  H   GLU A   2      33.917 -43.862 -36.323  0.00  0.00    +0.150 HD
BRANCH   6  10
ATOM     10  CA  ILE A   1      33.109 -43.393 -33.933  0.00  0.00    +0.145 C 
BRANCH  10  11
ATOM     11  N   ILE A   1      33.327 -42.341 -32.948  0.00  0.00    -0.238 NA
ATOM     12  H   ILE A   1      32.504 -41.832 -32.567  0.00  0.00    +0.142 HD
ENDBRANCH  10  11
BRANCH  10  13
ATOM     13  CB  ILE A   1      32.124 -44.456 -33.411  0.00  0.00    +0.025 C 
ATOM     14  CG2 ILE A   1      31.788 -45.468 -34.499  0.00  0.00    +0.002 C 
BRANCH  13  15
ATOM     15  CG1 ILE A   1      32.720 -45.154 -32.189  0.00  0.00    +0.002 C 
ATOM     16  CD1 ILE A   1      31.759 -46.046 -31.464  0.00  0.00    +0.000 C 
ENDBRANCH  13  15
ENDBRANCH  10  13
ENDBRANCH   6  10
ENDBRANCH   5   8
BRANCH   5  17
ATOM     17  CB  GLU A   2      34.069 -42.412 -38.521  0.00  0.00    +0.041 C 
BRANCH  17  18
ATOM     18  CG  GLU A   2      35.174 -41.521 -37.992  0.00  0.00    +0.116 C 
BRANCH  18  19
ATOM     19  CD  GLU A   2      36.453 -41.665 -38.791  0.00  0.00    +0.365 C 
ATOM     20  OE2 GLU A   2      37.526 -41.821 -38.169  0.00  0.00    -0.246 OA
ATOM     21  OE1 GLU A   2      36.382 -41.639 -40.039  0.00  0.00    -0.246 OA
ENDBRANCH  18  19
ENDBRANCH  17  18
ENDBRANCH   5  17
ENDBRANCH   1   5
BRANCH   3  22
ATOM     22  CA  PHE A   3      29.854 -42.984 -39.932  0.00  0.00    +0.153 C 
BRANCH  22  23
ATOM     23  C   PHE A   3      30.059 -42.410 -41.334  0.00  0.00    +0.244 C 
ATOM     24  O   PHE A   3      30.410 -41.239 -41.474  0.00  0.00    -0.273 OA
ATOM     25  N   PRO A   4      29.844 -43.226 -42.378  0.00  0.00    -0.273 N 
ATOM     26  CD  PRO A   4      29.519 -44.663 -42.395  0.00  0.00    +0.094 C 
ATOM     27  CG  PRO A   4      29.221 -44.932 -43.856  0.00  0.00    +0.024 C 
ATOM     28  CB  PRO A   4      29.986 -43.904 -44.622  0.00  0.00    +0.030 C 
ATOM     29  CA  PRO A   4      29.921 -42.664 -43.732  0.00  0.00    +0.140 C 
BRANCH  29  30
ATOM     30  C   PRO A   4      28.686 -41.825 -44.038  0.00  0.00    +0.227 C 
ATOM     31  O   PRO A   4      27.695 -41.938 -43.316  0.00  0.00    -0.286 OA
ENDBRANCH  29  30
ENDBRANCH  22  23
BRANCH  22  32
ATOM     32  CB  PHE A   3      28.455 -42.616 -39.422  0.00  0.00    +0.055 C 
BRANCH  32  33
ATOM     33  CG  PHE A   3      28.074 -43.279 -38.124  0.00  0.00    -0.020 A 
ATOM     34  CD2 PHE A   3      28.645 -42.879 -36.926  0.00  0.00    -0.004 A 
ATOM     35  CE2 PHE A   3      28.287 -43.483 -35.733  0.00  0.00    -0.000 A 
ATOM     36  CZ  PHE A   3      27.338 -44.488 -35.726  0.00  0.00    -0.000 A 
ATOM     37  CE1 PHE A   3      26.751 -44.889 -36.912  0.00  0.00    -0.000 A 
ATOM     38  CD1 PHE A   3      27.118 -44.283 -38.102  0.00  0.00    -0.004 A 
ENDBRANCH  32  33
ENDBRANCH  22  32
ENDBRANCH   3  22
TORSDOF 14
REMARK  Name = ../refined-set-2016/4p6w/4p6w_pocket.pdb
REMARK  262 active torsions:
REMARK  status: ('A' for Active; 'I' for Inactive)
REMARK    1  A    between atoms: _1  and  _3
REMARK    2  A    between atoms: _3  and  _4
REMARK    3  A    between atoms: _3  and  _6
REMARK    4  A    between atoms: _6  and  _7
REMARK    5  A    between atoms: _10  and  _12
REMARK    6  A    between atoms: _12  and  _13
REMARK    7  A    between atoms: _12  and  _15
REMARK    8  A    between atoms: _15  and  _16
REMARK    9  A    between atoms: _19  and  _21
REMARK   10  A    between atoms: _21  and  _22
REMARK   11  A    between atoms: _21  and  _24
REMARK   12  A    between atoms: _24  and  _25
REMARK   13  A    between atoms: _35  and  _37
REMARK   14  A    between atoms: _37  and  _38
REMARK   15  A    between atoms: _37  and  _40
REMARK   16  A    between atoms: _40  and  _41
REMARK   17  A    between atoms: _44  and  _46
REMARK   18  A    between atoms: _46  and  _47
REMARK   19  A    between atoms: _46  and  _49
REMARK   20  A    between atoms: _49  and  _50
REMARK   21  A    between atoms: _50  and  _51
REMARK   22  A    between atoms: _53  and  _55
REMARK   23  A    between atoms: _55  and  _56
REMARK   24  A    between atoms: _55  and  _58
REMARK   25  A    between atoms: _58  and  _59
REMARK   26  A    between atoms: _62  and  _64
REMARK   27  A    between atoms: _64  and  _65
REMARK   28  A    between atoms: _64  and  _67
REMARK   29  A    between atoms: _67  and  _68
REMARK   30  A    between atoms: _71  and  _73
REMARK   31  A    between atoms: _73  and  _74
REMARK   32  A    between atoms: _73  and  _76
REMARK   33  A    between atoms: _76  and  _77
REMARK   34  A    between atoms: _80  and  _82
REMARK   35  A    between atoms: _82  and  _83
REMARK   36  A    between atoms: _82  and  _85
REMARK   37  A    between atoms: _85  and  _86
REMARK   38  A    between atoms: _91  and  _93
REMARK   39  A    between atoms: _93  and  _94
REMARK   40  A    between atoms: _93  and  _96
REMARK   41  A    between atoms: _96  and  _97
REMARK   42  A    between atoms: _97  and  _98
REMARK   43  A    between atoms: _100  and  _102
REMARK   44  A    between atoms: _102  and  _103
REMARK   45  A    between atoms: _102  and  _105
REMARK   46  A    between atoms: _105  and  _106
REMARK   47  A    between atoms: _109  and  _111
REMARK   48  A    between atoms: _111  and  _112
REMARK   49  A    between atoms: _114  and  _116
REMARK   50  A    between atoms: _116  and  _117
REMARK   51  A    between atoms: _119  and  _121
REMARK   52  A    between atoms: _121  and  _122
REMARK   53  A    between atoms: _121  and  _124
REMARK   54  A    between atoms: _124  and  _125
REMARK   55  A    between atoms: _125  and  _126
REMARK   56  A    between atoms: _126  and  _127
REMARK   57  A    between atoms: _136  and  _138
REMARK   58  A    between atoms: _138  and  _139
REMARK   59  A    between atoms: _138  and  _141
REMARK   60  A    between atoms: _141  and  _142
REMARK   61  A    between atoms: _142  and  _143
REMARK   62  A    between atoms: _148  and  _150
REMARK   63  A    between atoms: _150  and  _151
REMARK   64  A    between atoms: _150  and  _153
REMARK   65  A    between atoms: _156  and  _158
REMARK   66  A    between atoms: _158  and  _159
REMARK   67  A    between atoms: _158  and  _161
REMARK   68  A    between atoms: _161  and  _162
REMARK   69  A    between atoms: _172  and  _174
REMARK   70  A    between atoms: _174  and  _175
REMARK   71  A    between atoms: _174  and  _177
REMARK   72  A    between atoms: _177  and  _178
REMARK   73  A    between atoms: _178  and  _179
REMARK   74  A    between atoms: _181  and  _183
REMARK   75  A    between atoms: _183  and  _184
REMARK   76  A    between atoms: _187  and  _189
REMARK   77  A    between atoms: _189  and  _190
REMARK   78  A    between atoms: _189  and  _192
REMARK   79  A    between atoms: _192  and  _193
REMARK   80  A    between atoms: _196  and  _198
REMARK   81  A    between atoms: _198  and  _199
REMARK   82  A    between atoms: _198  and  _201
REMARK   83  A    between atoms: _201  and  _202
REMARK   84  A    between atoms: _202  and  _203
REMARK   85  A    between atoms: _205  and  _207
REMARK   86  A    between atoms: _207  and  _208
REMARK   87  A    between atoms: _211  and  _213
REMARK   88  A    between atoms: _213  and  _214
REMARK   89  A    between atoms: _213  and  _216
REMARK   90  A    between atoms: _216  and  _217
REMARK   91  A    between atoms: _223  and  _225
REMARK   92  A    between atoms: _225  and  _226
REMARK   93  A    between atoms: _229  and  _231
REMARK   94  A    between atoms: _231  and  _232
REMARK   95  A    between atoms: _231  and  _234
REMARK   96  A    between atoms: _234  and  _235
REMARK   97  A    between atoms: _238  and  _240
REMARK   98  A    between atoms: _240  and  _241
REMARK   99  A    between atoms: _243  and  _245
REMARK  100  A    between atoms: _245  and  _246
REMARK  101  A    between atoms: _245  and  _248
REMARK  102  A    between atoms: _248  and  _249
REMARK  103  A    between atoms: _249  and  _250
REMARK  104  A    between atoms: _250  and  _251
REMARK  105  A    between atoms: _260  and  _262
REMARK  106  A    between atoms: _262  and  _263
REMARK  107  A    between atoms: _262  and  _265
REMARK  108  A    between atoms: _265  and  _266
REMARK  109  A    between atoms: _268  and  _270
REMARK  110  A    between atoms: _270  and  _271
REMARK  111  A    between atoms: _270  and  _273
REMARK  112  A    between atoms: _273  and  _274
REMARK  113  A    between atoms: _277  and  _279
REMARK  114  A    between atoms: _279  and  _280
REMARK  115  A    between atoms: _279  and  _282
REMARK  116  A    between atoms: _282  and  _283
REMARK  117  A    between atoms: _288  and  _289
REMARK  118  A    between atoms: _291  and  _293
REMARK  119  A    between atoms: _293  and  _294
REMARK  120  A    between atoms: _293  and  _296
REMARK  121  A    between atoms: _296  and  _297
REMARK  122  A    between atoms: _303  and  _305
REMARK  123  A    between atoms: _305  and  _306
REMARK  124  A    between atoms: _309  and  _311
REMARK  125  A    between atoms: _311  and  _312
REMARK  126  A    between atoms: _311  and  _314
REMARK  127  A    between atoms: _314  and  _315
REMARK  128  A    between atoms: _318  and  _320
REMARK  129  A    between atoms: _320  and  _321
REMARK  130  A    between atoms: _320  and  _323
REMARK  131  A    between atoms: _323  and  _324
REMARK  132  A    between atoms: _327  and  _329
REMARK  133  A    between atoms: _329  and  _330
REMARK  134  A    between atoms: _329  and  _332
REMARK  135  A    between atoms: _332  and  _333
REMARK  136  A    between atoms: _333  and  _334
REMARK  137  A    between atoms: _334  and  _335
REMARK  138  A    between atoms: _344  and  _346
REMARK  139  A    between atoms: _346  and  _347
REMARK  140  A    between atoms: _346  and  _349
REMARK  141  A    between atoms: _349  and  _350
REMARK  142  A    between atoms: _350  and  _351
REMARK  143  A    between atoms: _353  and  _355
REMARK  144  A    between atoms: _355  and  _356
REMARK  145  A    between atoms: _355  and  _358
REMARK  146  A    between atoms: _358  and  _359
REMARK  147  A    between atoms: _363  and  _364
REMARK  148  A    between atoms: _369  and  _371
REMARK  149  A    between atoms: _371  and  _372
REMARK  150  A    between atoms: _371  and  _374
REMARK  151  A    between atoms: _376  and  _378
REMARK  152  A    between atoms: _378  and  _379
REMARK  153  A    between atoms: _378  and  _381
REMARK  154  A    between atoms: _381  and  _382
REMARK  155  A    between atoms: _382  and  _383
REMARK  156  A    between atoms: _385  and  _387
REMARK  157  A    between atoms: _387  and  _388
REMARK  158  A    between atoms: _387  and  _390
REMARK  159  A    between atoms: _390  and  _391
REMARK  160  A    between atoms: _396  and  _397
REMARK  161  A    between atoms: _399  and  _401
REMARK  162  A    between atoms: _401  and  _402
REMARK  163  A    between atoms: _401  and  _404
REMARK  164  A    between atoms: _404  and  _405
REMARK  165  A    between atoms: _408  and  _410
REMARK  166  A    between atoms: _410  and  _411
REMARK  167  A    between atoms: _410  and  _413
REMARK  168  A    between atoms: _413  and  _414
REMARK  169  A    between atoms: _414  and  _415
REMARK  170  A    between atoms: _420  and  _422
REMARK  171  A    between atoms: _422  and  _423
REMARK  172  A    between atoms: _422  and  _425
REMARK  173  A    between atoms: _427  and  _429
REMARK  174  A    between atoms: _429  and  _430
REMARK  175  A    between atoms: _429  and  _432
REMARK  176  A    between atoms: _432  and  _433
REMARK  177  A    between atoms: _433  and  _434
REMARK  178  A    between atoms: _434  and  _435
REMARK  179  A    between atoms: _435  and  _436
REMARK  180  A    between atoms: _440  and  _442
REMARK  181  A    between atoms: _442  and  _443
REMARK  182  A    between atoms: _442  and  _445
REMARK  183  A    between atoms: _445  and  _446
REMARK  184  A    between atoms: _451  and  _453
REMARK  185  A    between atoms: _453  and  _454
REMARK  186  A    between atoms: _453  and  _456
REMARK  187  A    between atoms: _456  and  _457
REMARK  188  A    between atoms: _457  and  _458
REMARK  189  A    between atoms: _460  and  _462
REMARK  190  A    between atoms: _462  and  _463
REMARK  191  A    between atoms: _462  and  _465
REMARK  192  A    between atoms: _468  and  _470
REMARK  193  A    between atoms: _470  and  _471
REMARK  194  A    between atoms: _470  and  _473
REMARK  195  A    between atoms: _476  and  _478
REMARK  196  A    between atoms: _478  and  _479
REMARK  197  A    between atoms: _478  and  _481
REMARK  198  A    between atoms: _481  and  _482
REMARK  199  A    between atoms: _487  and  _489
REMARK  200  A    between atoms: _489  and  _490
REMARK  201  A    between atoms: _489  and  _492
REMARK  202  A    between atoms: _492  and  _493
REMARK  203  A    between atoms: _496  and  _498
REMARK  204  A    between atoms: _498  and  _499
REMARK  205  A    between atoms: _498  and  _501
REMARK  206  A    between atoms: _501  and  _502
REMARK  207  A    between atoms: _505  and  _507
REMARK  208  A    between atoms: _507  and  _508
REMARK  209  A    between atoms: _507  and  _510
REMARK  210  A    between atoms: _510  and  _511
REMARK  211  A    between atoms: _516  and  _518
REMARK  212  A    between atoms: _518  and  _519
REMARK  213  A    between atoms: _518  and  _521
REMARK  214  A    between atoms: _521  and  _522
REMARK  215  A    between atoms: _527  and  _528
REMARK  216  A    between atoms: _530  and  _532
REMARK  217  A    between atoms: _532  and  _533
REMARK  218  A    between atoms: _532  and  _535
REMARK  219  A    between atoms: _537  and  _539
REMARK  220  A    between atoms: _539  and  _540
REMARK  221  A    between atoms: _539  and  _542
REMARK  222  A    between atoms: _542  and  _543
REMARK  223  A    between atoms: _549  and  _551
REMARK  224  A    between atoms: _551  and  _552
REMARK  225  A    between atoms: _551  and  _554
REMARK  226  A    between atoms: _554  and  _555
REMARK  227  A    between atoms: _555  and  _556
REMARK  228  A    between atoms: _561  and  _563
REMARK  229  A    between atoms: _563  and  _564
REMARK  230  A    between atoms: _563  and  _566
REMARK  231  A    between atoms: _566  and  _567
REMARK  232  A    between atoms: _570  and  _572
REMARK  233  A    between atoms: _572  and  _573
REMARK  234  A    between atoms: _572  and  _575
REMARK  235  A    between atoms: _575  and  _576
REMARK  236  A    between atoms: _582  and  _584
REMARK  237  A    between atoms: _584  and  _585
REMARK  238  A    between atoms: _584  and  _587
REMARK  239  A    between atoms: _587  and  _588
REMARK  240  A    between atoms: _588  and  _589
REMARK  241  A    between atoms: _591  and  _593
REMARK  242  A    between atoms: _593  and  _594
REMARK  243  A    between atoms: _593  and  _596
REMARK  244  A    between atoms: _596  and  _597
REMARK  245  A    between atoms: _600  and  _602
REMARK  246  A    between atoms: _602  and  _603
REMARK  247  A    between atoms: _602  and  _605
REMARK  248  A    between atoms: _605  and  _606
REMARK  249  A    between atoms: _606  and  _607
REMARK  250  A    between atoms: _610  and  _612
REMARK  251  A    between atoms: _612  and  _613
REMARK  252  A    between atoms: _612  and  _615
REMARK  253  A    between atoms: _615  and  _616
REMARK  254  A    between atoms: _623  and  _624
REMARK  255  A    between atoms: _629  and  _631
REMARK  256  A    between atoms: _631  and  _632
REMARK  257  A    between atoms: _631  and  _634
REMARK  258  A    between atoms: _634  and  _635
REMARK  259  A    between atoms: _638  and  _640
REMARK  260  A    between atoms: _640  and  _641
REMARK  261  A    between atoms: _640  and  _643
REMARK  262  A    between atoms: _643  and  _644
REMARK                            x       y       z     vdW  Elec       q    Type
REMARK                         _______ _______ _______ _____ _____    ______ ____
ROOT
ATOM      1  CA  LEU A   1      24.431 -44.076 -42.956  0.00  0.00    +0.133 C 
ENDROOT
BRANCH   1   2
ATOM      2  N   LEU A   1      25.092 -43.707 -44.203  0.00  0.00    -0.239 NA
ATOM      3  H   LEU A   1      26.115 -43.863 -44.309  0.00  0.00    +0.142 HD
ENDBRANCH   1   2
BRANCH   1   4
ATOM      4  C   LEU A   1      24.048 -42.845 -42.143  0.00  0.00    +0.224 C 
ATOM      5  O   LEU A   1      22.972 -42.803 -41.549  0.00  0.00    -0.287 OA
ENDBRANCH   1   4
BRANCH   1   6
ATOM      6  CB  LEU A   1      25.317 -45.000 -42.119  0.00  0.00    +0.025 C 
BRANCH   6   7
ATOM      7  CG  LEU A   1      25.711 -46.346 -42.731  0.00  0.00    +0.002 C 
ATOM      8  CD2 LEU A   1      26.264 -47.270 -41.658  0.00  0.00    +0.000 C 
ATOM      9  CD1 LEU A   1      24.539 -46.993 -43.456  0.00  0.00    +0.000 C 
ENDBRANCH   6   7
ENDBRANCH   1   6
TORSDOF 4
REMARK  Name = ../refined-set-2016/4p6w/4p6w_pocket.pdb
REMARK  262 active torsions:
REMARK  status: ('A' for Active; 'I' for Inactive)
REMARK    1  A    between atoms: _1  and  _3
REMARK    2  A    between atoms: _3  and  _4
REMARK    3  A    between atoms: _3  and  _6
REMARK    4  A    between atoms: _6  and  _7
REMARK    5  A    between atoms: _10  and  _12
REMARK    6  A    between atoms: _12  and  _13
REMARK    7  A    between atoms: _12  and  _15
REMARK    8  A    between atoms: _15  and  _16
REMARK    9  A    between atoms: _19  and  _21
REMARK   10  A    between atoms: _21  and  _22
REMARK   11  A    between atoms: _21  and  _24
REMARK   12  A    between atoms: _24  and  _25
REMARK   13  A    between atoms: _35  and  _37
REMARK   14  A    between atoms: _37  and  _38
REMARK   15  A    between atoms: _37  and  _40
REMARK   16  A    between atoms: _40  and  _41
REMARK   17  A    between atoms: _44  and  _46
REMARK   18  A    between atoms: _46  and  _47
REMARK   19  A    between atoms: _46  and  _49
REMARK   20  A    between atoms: _49  and  _50
REMARK   21  A    between atoms: _50  and  _51
REMARK   22  A    between atoms: _53  and  _55
REMARK   23  A    between atoms: _55  and  _56
REMARK   24  A    between atoms: _55  and  _58
REMARK   25  A    between atoms: _58  and  _59
REMARK   26  A    between atoms: _62  and  _64
REMARK   27  A    between atoms: _64  and  _65
REMARK   28  A    between atoms: _64  and  _67
REMARK   29  A    between atoms: _67  and  _68
REMARK   30  A    between atoms: _71  and  _73
REMARK   31  A    between atoms: _73  and  _74
REMARK   32  A    between atoms: _73  and  _76
REMARK   33  A    between atoms: _76  and  _77
REMARK   34  A    between atoms: _80  and  _82
REMARK   35  A    between atoms: _82  and  _83
REMARK   36  A    between atoms: _82  and  _85
REMARK   37  A    between atoms: _85  and  _86
REMARK   38  A    between atoms: _91  and  _93
REMARK   39  A    between atoms: _93  and  _94
REMARK   40  A    between atoms: _93  and  _96
REMARK   41  A    between atoms: _96  and  _97
REMARK   42  A    between atoms: _97  and  _98
REMARK   43  A    between atoms: _100  and  _102
REMARK   44  A    between atoms: _102  and  _103
REMARK   45  A    between atoms: _102  and  _105
REMARK   46  A    between atoms: _105  and  _106
REMARK   47  A    between atoms: _109  and  _111
REMARK   48  A    between atoms: _111  and  _112
REMARK   49  A    between atoms: _114  and  _116
REMARK   50  A    between atoms: _116  and  _117
REMARK   51  A    between atoms: _119  and  _121
REMARK   52  A    between atoms: _121  and  _122
REMARK   53  A    between atoms: _121  and  _124
REMARK   54  A    between atoms: _124  and  _125
REMARK   55  A    between atoms: _125  and  _126
REMARK   56  A    between atoms: _126  and  _127
REMARK   57  A    between atoms: _136  and  _138
REMARK   58  A    between atoms: _138  and  _139
REMARK   59  A    between atoms: _138  and  _141
REMARK   60  A    between atoms: _141  and  _142
REMARK   61  A    between atoms: _142  and  _143
REMARK   62  A    between atoms: _148  and  _150
REMARK   63  A    between atoms: _150  and  _151
REMARK   64  A    between atoms: _150  and  _153
REMARK   65  A    between atoms: _156  and  _158
REMARK   66  A    between atoms: _158  and  _159
REMARK   67  A    between atoms: _158  and  _161
REMARK   68  A    between atoms: _161  and  _162
REMARK   69  A    between atoms: _172  and  _174
REMARK   70  A    between atoms: _174  and  _175
REMARK   71  A    between atoms: _174  and  _177
REMARK   72  A    between atoms: _177  and  _178
REMARK   73  A    between atoms: _178  and  _179
REMARK   74  A    between atoms: _181  and  _183
REMARK   75  A    between atoms: _183  and  _184
REMARK   76  A    between atoms: _187  and  _189
REMARK   77  A    between atoms: _189  and  _190
REMARK   78  A    between atoms: _189  and  _192
REMARK   79  A    between atoms: _192  and  _193
REMARK   80  A    between atoms: _196  and  _198
REMARK   81  A    between atoms: _198  and  _199
REMARK   82  A    between atoms: _198  and  _201
REMARK   83  A    between atoms: _201  and  _202
REMARK   84  A    between atoms: _202  and  _203
REMARK   85  A    between atoms: _205  and  _207
REMARK   86  A    between atoms: _207  and  _208
REMARK   87  A    between atoms: _211  and  _213
REMARK   88  A    between atoms: _213  and  _214
REMARK   89  A    between atoms: _213  and  _216
REMARK   90  A    between atoms: _216  and  _217
REMARK   91  A    between atoms: _223  and  _225
REMARK   92  A    between atoms: _225  and  _226
REMARK   93  A    between atoms: _229  and  _231
REMARK   94  A    between atoms: _231  and  _232
REMARK   95  A    between atoms: _231  and  _234
REMARK   96  A    between atoms: _234  and  _235
REMARK   97  A    between atoms: _238  and  _240
REMARK   98  A    between atoms: _240  and  _241
REMARK   99  A    between atoms: _243  and  _245
REMARK  100  A    between atoms: _245  and  _246
REMARK  101  A    between atoms: _245  and  _248
REMARK  102  A    between atoms: _248  and  _249
REMARK  103  A    between atoms: _249  and  _250
REMARK  104  A    between atoms: _250  and  _251
REMARK  105  A    between atoms: _260  and  _262
REMARK  106  A    between atoms: _262  and  _263
REMARK  107  A    between atoms: _262  and  _265
REMARK  108  A    between atoms: _265  and  _266
REMARK  109  A    between atoms: _268  and  _270
REMARK  110  A    between atoms: _270  and  _271
REMARK  111  A    between atoms: _270  and  _273
REMARK  112  A    between atoms: _273  and  _274
REMARK  113  A    between atoms: _277  and  _279
REMARK  114  A    between atoms: _279  and  _280
REMARK  115  A    between atoms: _279  and  _282
REMARK  116  A    between atoms: _282  and  _283
REMARK  117  A    between atoms: _288  and  _289
REMARK  118  A    between atoms: _291  and  _293
REMARK  119  A    between atoms: _293  and  _294
REMARK  120  A    between atoms: _293  and  _296
REMARK  121  A    between atoms: _296  and  _297
REMARK  122  A    between atoms: _303  and  _305
REMARK  123  A    between atoms: _305  and  _306
REMARK  124  A    between atoms: _309  and  _311
REMARK  125  A    between atoms: _311  and  _312
REMARK  126  A    between atoms: _311  and  _314
REMARK  127  A    between atoms: _314  and  _315
REMARK  128  A    between atoms: _318  and  _320
REMARK  129  A    between atoms: _320  and  _321
REMARK  130  A    between atoms: _320  and  _323
REMARK  131  A    between atoms: _323  and  _324
REMARK  132  A    between atoms: _327  and  _329
REMARK  133  A    between atoms: _329  and  _330
REMARK  134  A    between atoms: _329  and  _332
REMARK  135  A    between atoms: _332  and  _333
REMARK  136  A    between atoms: _333  and  _334
REMARK  137  A    between atoms: _334  and  _335
REMARK  138  A    between atoms: _344  and  _346
REMARK  139  A    between atoms: _346  and  _347
REMARK  140  A    between atoms: _346  and  _349
REMARK  141  A    between atoms: _349  and  _350
REMARK  142  A    between atoms: _350  and  _351
REMARK  143  A    between atoms: _353  and  _355
REMARK  144  A    between atoms: _355  and  _356
REMARK  145  A    between atoms: _355  and  _358
REMARK  146  A    between atoms: _358  and  _359
REMARK  147  A    between atoms: _363  and  _364
REMARK  148  A    between atoms: _369  and  _371
REMARK  149  A    between atoms: _371  and  _372
REMARK  150  A    between atoms: _371  and  _374
REMARK  151  A    between atoms: _376  and  _378
REMARK  152  A    between atoms: _378  and  _379
REMARK  153  A    between atoms: _378  and  _381
REMARK  154  A    between atoms: _381  and  _382
REMARK  155  A    between atoms: _382  and  _383
REMARK  156  A    between atoms: _385  and  _387
REMARK  157  A    between atoms: _387  and  _388
REMARK  158  A    between atoms: _387  and  _390
REMARK  159  A    between atoms: _390  and  _391
REMARK  160  A    between atoms: _396  and  _397
REMARK  161  A    between atoms: _399  and  _401
REMARK  162  A    between atoms: _401  and  _402
REMARK  163  A    between atoms: _401  and  _404
REMARK  164  A    between atoms: _404  and  _405
REMARK  165  A    between atoms: _408  and  _410
REMARK  166  A    between atoms: _410  and  _411
REMARK  167  A    between atoms: _410  and  _413
REMARK  168  A    between atoms: _413  and  _414
REMARK  169  A    between atoms: _414  and  _415
REMARK  170  A    between atoms: _420  and  _422
REMARK  171  A    between atoms: _422  and  _423
REMARK  172  A    between atoms: _422  and  _425
REMARK  173  A    between atoms: _427  and  _429
REMARK  174  A    between atoms: _429  and  _430
REMARK  175  A    between atoms: _429  and  _432
REMARK  176  A    between atoms: _432  and  _433
REMARK  177  A    between atoms: _433  and  _434
REMARK  178  A    between atoms: _434  and  _435
REMARK  179  A    between atoms: _435  and  _436
REMARK  180  A    between atoms: _440  and  _442
REMARK  181  A    between atoms: _442  and  _443
REMARK  182  A    between atoms: _442  and  _445
REMARK  183  A    between atoms: _445  and  _446
REMARK  184  A    between atoms: _451  and  _453
REMARK  185  A    between atoms: _453  and  _454
REMARK  186  A    between atoms: _453  and  _456
REMARK  187  A    between atoms: _456  and  _457
REMARK  188  A    between atoms: _457  and  _458
REMARK  189  A    between atoms: _460  and  _462
REMARK  190  A    between atoms: _462  and  _463
REMARK  191  A    between atoms: _462  and  _465
REMARK  192  A    between atoms: _468  and  _470
REMARK  193  A    between atoms: _470  and  _471
REMARK  194  A    between atoms: _470  and  _473
REMARK  195  A    between atoms: _476  and  _478
REMARK  196  A    between atoms: _478  and  _479
REMARK  197  A    between atoms: _478  and  _481
REMARK  198  A    between atoms: _481  and  _482
REMARK  199  A    between atoms: _487  and  _489
REMARK  200  A    between atoms: _489  and  _490
REMARK  201  A    between atoms: _489  and  _492
REMARK  202  A    between atoms: _492  and  _493
REMARK  203  A    between atoms: _496  and  _498
REMARK  204  A    between atoms: _498  and  _499
REMARK  205  A    between atoms: _498  and  _501
REMARK  206  A    between atoms: _501  and  _502
REMARK  207  A    between atoms: _505  and  _507
REMARK  208  A    between atoms: _507  and  _508
REMARK  209  A    between atoms: _507  and  _510
REMARK  210  A    between atoms: _510  and  _511
REMARK  211  A    between atoms: _516  and  _518
REMARK  212  A    between atoms: _518  and  _519
REMARK  213  A    between atoms: _518  and  _521
REMARK  214  A    between atoms: _521  and  _522
REMARK  215  A    between atoms: _527  and  _528
REMARK  216  A    between atoms: _530  and  _532
REMARK  217  A    between atoms: _532  and  _533
REMARK  218  A    between atoms: _532  and  _535
REMARK  219  A    between atoms: _537  and  _539
REMARK  220  A    between atoms: _539  and  _540
REMARK  221  A    between atoms: _539  and  _542
REMARK  222  A    between atoms: _542  and  _543
REMARK  223  A    between atoms: _549  and  _551
REMARK  224  A    between atoms: _551  and  _552
REMARK  225  A    between atoms: _551  and  _554
REMARK  226  A    between atoms: _554  and  _555
REMARK  227  A    between atoms: _555  and  _556
REMARK  228  A    between atoms: _561  and  _563
REMARK  229  A    between atoms: _563  and  _564
REMARK  230  A    between atoms: _563  and  _566
REMARK  231  A    between atoms: _566  and  _567
REMARK  232  A    between atoms: _570  and  _572
REMARK  233  A    between atoms: _572  and  _573
REMARK  234  A    between atoms: _572  and  _575
REMARK  235  A    between atoms: _575  and  _576
REMARK  236  A    between atoms: _582  and  _584
REMARK  237  A    between atoms: _584  and  _585
REMARK  238  A    between atoms: _584  and  _587
REMARK  239  A    between atoms: _587  and  _588
REMARK  240  A    between atoms: _588  and  _589
REMARK  241  A    between atoms: _591  and  _593
REMARK  242  A    between atoms: _593  and  _594
REMARK  243  A    between atoms: _593  and  _596
REMARK  244  A    between atoms: _596  and  _597
REMARK  245  A    between atoms: _600  and  _602
REMARK  246  A    between atoms: _602  and  _603
REMARK  247  A    between atoms: _602  and  _605
REMARK  248  A    between atoms: _605  and  _606
REMARK  249  A    between atoms: _606  and  _607
REMARK  250  A    between atoms: _610  and  _612
REMARK  251  A    between atoms: _612  and  _613
REMARK  252  A    between atoms: _612  and  _615
REMARK  253  A    between atoms: _615  and  _616
REMARK  254  A    between atoms: _623  and  _624
REMARK  255  A    between atoms: _629  and  _631
REMARK  256  A    between atoms: _631  and  _632
REMARK  257  A    between atoms: _631  and  _634
REMARK  258  A    between atoms: _634  and  _635
REMARK  259  A    between atoms: _638  and  _640
REMARK  260  A    between atoms: _640  and  _641
REMARK  261  A    between atoms: _640  and  _643
REMARK  262  A    between atoms: _643  and  _644
REMARK                            x       y       z     vdW  Elec       q    Type
REMARK                         _______ _______ _______ _____ _____    ______ ____
ROOT
ATOM      1  CA  ILE A   1      20.081 -42.246 -39.439  0.00  0.00    +0.133 C 
ENDROOT
BRANCH   1   2
ATOM      2  N   ILE A   1      20.292 -42.268 -40.883  0.00  0.00    -0.239 NA
ATOM      3  H   ILE A   1      21.253 -42.421 -41.251  0.00  0.00    +0.142 HD
ENDBRANCH   1   2
BRANCH   1   4
ATOM      4  CB  ILE A   1      21.397 -42.511 -38.679  0.00  0.00    +0.023 C 
ATOM      5  CG2 ILE A   1      21.228 -42.231 -37.194  0.00  0.00    +0.002 C 
BRANCH   4   6
ATOM      6  CG1 ILE A   1      21.844 -43.958 -38.888  0.00  0.00    +0.002 C 
ATOM      7  CD1 ILE A   1      23.278 -44.213 -38.495  0.00  0.00    +0.000 C 
ENDBRANCH   4   6
ENDBRANCH   1   4
BRANCH   1   8
ATOM      8  C   ILE A   1      19.486 -40.918 -38.978  0.00  0.00    +0.224 C 
ATOM      9  O   ILE A   1      18.540 -40.896 -38.191  0.00  0.00    -0.287 OA
ENDBRANCH   1   8
TORSDOF 4
REMARK  Name = ../refined-set-2016/4p6w/4p6w_pocket.pdb
REMARK  262 active torsions:
REMARK  status: ('A' for Active; 'I' for Inactive)
REMARK    1  A    between atoms: _1  and  _3
REMARK    2  A    between atoms: _3  and  _4
REMARK    3  A    between atoms: _3  and  _6
REMARK    4  A    between atoms: _6  and  _7
REMARK    5  A    between atoms: _10  and  _12
REMARK    6  A    between atoms: _12  and  _13
REMARK    7  A    between atoms: _12  and  _15
REMARK    8  A    between atoms: _15  and  _16
REMARK    9  A    between atoms: _19  and  _21
REMARK   10  A    between atoms: _21  and  _22
REMARK   11  A    between atoms: _21  and  _24
REMARK   12  A    between atoms: _24  and  _25
REMARK   13  A    between atoms: _35  and  _37
REMARK   14  A    between atoms: _37  and  _38
REMARK   15  A    between atoms: _37  and  _40
REMARK   16  A    between atoms: _40  and  _41
REMARK   17  A    between atoms: _44  and  _46
REMARK   18  A    between atoms: _46  and  _47
REMARK   19  A    between atoms: _46  and  _49
REMARK   20  A    between atoms: _49  and  _50
REMARK   21  A    between atoms: _50  and  _51
REMARK   22  A    between atoms: _53  and  _55
REMARK   23  A    between atoms: _55  and  _56
REMARK   24  A    between atoms: _55  and  _58
REMARK   25  A    between atoms: _58  and  _59
REMARK   26  A    between atoms: _62  and  _64
REMARK   27  A    between atoms: _64  and  _65
REMARK   28  A    between atoms: _64  and  _67
REMARK   29  A    between atoms: _67  and  _68
REMARK   30  A    between atoms: _71  and  _73
REMARK   31  A    between atoms: _73  and  _74
REMARK   32  A    between atoms: _73  and  _76
REMARK   33  A    between atoms: _76  and  _77
REMARK   34  A    between atoms: _80  and  _82
REMARK   35  A    between atoms: _82  and  _83
REMARK   36  A    between atoms: _82  and  _85
REMARK   37  A    between atoms: _85  and  _86
REMARK   38  A    between atoms: _91  and  _93
REMARK   39  A    between atoms: _93  and  _94
REMARK   40  A    between atoms: _93  and  _96
REMARK   41  A    between atoms: _96  and  _97
REMARK   42  A    between atoms: _97  and  _98
REMARK   43  A    between atoms: _100  and  _102
REMARK   44  A    between atoms: _102  and  _103
REMARK   45  A    between atoms: _102  and  _105
REMARK   46  A    between atoms: _105  and  _106
REMARK   47  A    between atoms: _109  and  _111
REMARK   48  A    between atoms: _111  and  _112
REMARK   49  A    between atoms: _114  and  _116
REMARK   50  A    between atoms: _116  and  _117
REMARK   51  A    between atoms: _119  and  _121
REMARK   52  A    between atoms: _121  and  _122
REMARK   53  A    between atoms: _121  and  _124
REMARK   54  A    between atoms: _124  and  _125
REMARK   55  A    between atoms: _125  and  _126
REMARK   56  A    between atoms: _126  and  _127
REMARK   57  A    between atoms: _136  and  _138
REMARK   58  A    between atoms: _138  and  _139
REMARK   59  A    between atoms: _138  and  _141
REMARK   60  A    between atoms: _141  and  _142
REMARK   61  A    between atoms: _142  and  _143
REMARK   62  A    between atoms: _148  and  _150
REMARK   63  A    between atoms: _150  and  _151
REMARK   64  A    between atoms: _150  and  _153
REMARK   65  A    between atoms: _156  and  _158
REMARK   66  A    between atoms: _158  and  _159
REMARK   67  A    between atoms: _158  and  _161
REMARK   68  A    between atoms: _161  and  _162
REMARK   69  A    between atoms: _172  and  _174
REMARK   70  A    between atoms: _174  and  _175
REMARK   71  A    between atoms: _174  and  _177
REMARK   72  A    between atoms: _177  and  _178
REMARK   73  A    between atoms: _178  and  _179
REMARK   74  A    between atoms: _181  and  _183
REMARK   75  A    between atoms: _183  and  _184
REMARK   76  A    between atoms: _187  and  _189
REMARK   77  A    between atoms: _189  and  _190
REMARK   78  A    between atoms: _189  and  _192
REMARK   79  A    between atoms: _192  and  _193
REMARK   80  A    between atoms: _196  and  _198
REMARK   81  A    between atoms: _198  and  _199
REMARK   82  A    between atoms: _198  and  _201
REMARK   83  A    between atoms: _201  and  _202
REMARK   84  A    between atoms: _202  and  _203
REMARK   85  A    between atoms: _205  and  _207
REMARK   86  A    between atoms: _207  and  _208
REMARK   87  A    between atoms: _211  and  _213
REMARK   88  A    between atoms: _213  and  _214
REMARK   89  A    between atoms: _213  and  _216
REMARK   90  A    between atoms: _216  and  _217
REMARK   91  A    between atoms: _223  and  _225
REMARK   92  A    between atoms: _225  and  _226
REMARK   93  A    between atoms: _229  and  _231
REMARK   94  A    between atoms: _231  and  _232
REMARK   95  A    between atoms: _231  and  _234
REMARK   96  A    between atoms: _234  and  _235
REMARK   97  A    between atoms: _238  and  _240
REMARK   98  A    between atoms: _240  and  _241
REMARK   99  A    between atoms: _243  and  _245
REMARK  100  A    between atoms: _245  and  _246
REMARK  101  A    between atoms: _245  and  _248
REMARK  102  A    between atoms: _248  and  _249
REMARK  103  A    between atoms: _249  and  _250
REMARK  104  A    between atoms: _250  and  _251
REMARK  105  A    between atoms: _260  and  _262
REMARK  106  A    between atoms: _262  and  _263
REMARK  107  A    between atoms: _262  and  _265
REMARK  108  A    between atoms: _265  and  _266
REMARK  109  A    between atoms: _268  and  _270
REMARK  110  A    between atoms: _270  and  _271
REMARK  111  A    between atoms: _270  and  _273
REMARK  112  A    between atoms: _273  and  _274
REMARK  113  A    between atoms: _277  and  _279
REMARK  114  A    between atoms: _279  and  _280
REMARK  115  A    between atoms: _279  and  _282
REMARK  116  A    between atoms: _282  and  _283
REMARK  117  A    between atoms: _288  and  _289
REMARK  118  A    between atoms: _291  and  _293
REMARK  119  A    between atoms: _293  and  _294
REMARK  120  A    between atoms: _293  and  _296
REMARK  121  A    between atoms: _296  and  _297
REMARK  122  A    between atoms: _303  and  _305
REMARK  123  A    between atoms: _305  and  _306
REMARK  124  A    between atoms: _309  and  _311
REMARK  125  A    between atoms: _311  and  _312
REMARK  126  A    between atoms: _311  and  _314
REMARK  127  A    between atoms: _314  and  _315
REMARK  128  A    between atoms: _318  and  _320
REMARK  129  A    between atoms: _320  and  _321
REMARK  130  A    between atoms: _320  and  _323
REMARK  131  A    between atoms: _323  and  _324
REMARK  132  A    between atoms: _327  and  _329
REMARK  133  A    between atoms: _329  and  _330
REMARK  134  A    between atoms: _329  and  _332
REMARK  135  A    between atoms: _332  and  _333
REMARK  136  A    between atoms: _333  and  _334
REMARK  137  A    between atoms: _334  and  _335
REMARK  138  A    between atoms: _344  and  _346
REMARK  139  A    between atoms: _346  and  _347
REMARK  140  A    between atoms: _346  and  _349
REMARK  141  A    between atoms: _349  and  _350
REMARK  142  A    between atoms: _350  and  _351
REMARK  143  A    between atoms: _353  and  _355
REMARK  144  A    between atoms: _355  and  _356
REMARK  145  A    between atoms: _355  and  _358
REMARK  146  A    between atoms: _358  and  _359
REMARK  147  A    between atoms: _363  and  _364
REMARK  148  A    between atoms: _369  and  _371
REMARK  149  A    between atoms: _371  and  _372
REMARK  150  A    between atoms: _371  and  _374
REMARK  151  A    between atoms: _376  and  _378
REMARK  152  A    between atoms: _378  and  _379
REMARK  153  A    between atoms: _378  and  _381
REMARK  154  A    between atoms: _381  and  _382
REMARK  155  A    between atoms: _382  and  _383
REMARK  156  A    between atoms: _385  and  _387
REMARK  157  A    between atoms: _387  and  _388
REMARK  158  A    between atoms: _387  and  _390
REMARK  159  A    between atoms: _390  and  _391
REMARK  160  A    between atoms: _396  and  _397
REMARK  161  A    between atoms: _399  and  _401
REMARK  162  A    between atoms: _401  and  _402
REMARK  163  A    between atoms: _401  and  _404
REMARK  164  A    between atoms: _404  and  _405
REMARK  165  A    between atoms: _408  and  _410
REMARK  166  A    between atoms: _410  and  _411
REMARK  167  A    between atoms: _410  and  _413
REMARK  168  A    between atoms: _413  and  _414
REMARK  169  A    between atoms: _414  and  _415
REMARK  170  A    between atoms: _420  and  _422
REMARK  171  A    between atoms: _422  and  _423
REMARK  172  A    between atoms: _422  and  _425
REMARK  173  A    between atoms: _427  and  _429
REMARK  174  A    between atoms: _429  and  _430
REMARK  175  A    between atoms: _429  and  _432
REMARK  176  A    between atoms: _432  and  _433
REMARK  177  A    between atoms: _433  and  _434
REMARK  178  A    between atoms: _434  and  _435
REMARK  179  A    between atoms: _435  and  _436
REMARK  180  A    between atoms: _440  and  _442
REMARK  181  A    between atoms: _442  and  _443
REMARK  182  A    between atoms: _442  and  _445
REMARK  183  A    between atoms: _445  and  _446
REMARK  184  A    between atoms: _451  and  _453
REMARK  185  A    between atoms: _453  and  _454
REMARK  186  A    between atoms: _453  and  _456
REMARK  187  A    between atoms: _456  and  _457
REMARK  188  A    between atoms: _457  and  _458
REMARK  189  A    between atoms: _460  and  _462
REMARK  190  A    between atoms: _462  and  _463
REMARK  191  A    between atoms: _462  and  _465
REMARK  192  A    between atoms: _468  and  _470
REMARK  193  A    between atoms: _470  and  _471
REMARK  194  A    between atoms: _470  and  _473
REMARK  195  A    between atoms: _476  and  _478
REMARK  196  A    between atoms: _478  and  _479
REMARK  197  A    between atoms: _478  and  _481
REMARK  198  A    between atoms: _481  and  _482
REMARK  199  A    between atoms: _487  and  _489
REMARK  200  A    between atoms: _489  and  _490
REMARK  201  A    between atoms: _489  and  _492
REMARK  202  A    between atoms: _492  and  _493
REMARK  203  A    between atoms: _496  and  _498
REMARK  204  A    between atoms: _498  and  _499
REMARK  205  A    between atoms: _498  and  _501
REMARK  206  A    between atoms: _501  and  _502
REMARK  207  A    between atoms: _505  and  _507
REMARK  208  A    between atoms: _507  and  _508
REMARK  209  A    between atoms: _507  and  _510
REMARK  210  A    between atoms: _510  and  _511
REMARK  211  A    between atoms: _516  and  _518
REMARK  212  A    between atoms: _518  and  _519
REMARK  213  A    between atoms: _518  and  _521
REMARK  214  A    between atoms: _521  and  _522
REMARK  215  A    between atoms: _527  and  _528
REMARK  216  A    between atoms: _530  and  _532
REMARK  217  A    between atoms: _532  and  _533
REMARK  218  A    between atoms: _532  and  _535
REMARK  219  A    between atoms: _537  and  _539
REMARK  220  A    between atoms: _539  and  _540
REMARK  221  A    between atoms: _539  and  _542
REMARK  222  A    between atoms: _542  and  _543
REMARK  223  A    between atoms: _549  and  _551
REMARK  224  A    between atoms: _551  and  _552
REMARK  225  A    between atoms: _551  and  _554
REMARK  226  A    between atoms: _554  and  _555
REMARK  227  A    between atoms: _555  and  _556
REMARK  228  A    between atoms: _561  and  _563
REMARK  229  A    between atoms: _563  and  _564
REMARK  230  A    between atoms: _563  and  _566
REMARK  231  A    between atoms: _566  and  _567
REMARK  232  A    between atoms: _570  and  _572
REMARK  233  A    between atoms: _572  and  _573
REMARK  234  A    between atoms: _572  and  _575
REMARK  235  A    between atoms: _575  and  _576
REMARK  236  A    between atoms: _582  and  _584
REMARK  237  A    between atoms: _584  and  _585
REMARK  238  A    between atoms: _584  and  _587
REMARK  239  A    between atoms: _587  and  _588
REMARK  240  A    between atoms: _588  and  _589
REMARK  241  A    between atoms: _591  and  _593
REMARK  242  A    between atoms: _593  and  _594
REMARK  243  A    between atoms: _593  and  _596
REMARK  244  A    between atoms: _596  and  _597
REMARK  245  A    between atoms: _600  and  _602
REMARK  246  A    between atoms: _602  and  _603
REMARK  247  A    between atoms: _602  and  _605
REMARK  248  A    between atoms: _605  and  _606
REMARK  249  A    between atoms: _606  and  _607
REMARK  250  A    between atoms: _610  and  _612
REMARK  251  A    between atoms: _612  and  _613
REMARK  252  A    between atoms: _612  and  _615
REMARK  253  A    between atoms: _615  and  _616
REMARK  254  A    between atoms: _623  and  _624
REMARK  255  A    between atoms: _629  and  _631
REMARK  256  A    between atoms: _631  and  _632
REMARK  257  A    between atoms: _631  and  _634
REMARK  258  A    between atoms: _634  and  _635
REMARK  259  A    between atoms: _638  and  _640
REMARK  260  A    between atoms: _640  and  _641
REMARK  261  A    between atoms: _640  and  _643
REMARK  262  A    between atoms: _643  and  _644
REMARK                            x       y       z     vdW  Elec       q    Type
REMARK                         _______ _______ _______ _____ _____    ______ ____
ROOT
ATOM      1  O   HOH     1      30.730 -57.997 -45.998  0.00  0.00    +0.000 OA
ENDROOT
TORSDOF 0
REMARK  Name = ../refined-set-2016/4p6w/4p6w_pocket.pdb
REMARK  262 active torsions:
REMARK  status: ('A' for Active; 'I' for Inactive)
REMARK    1  A    between atoms: _1  and  _3
REMARK    2  A    between atoms: _3  and  _4
REMARK    3  A    between atoms: _3  and  _6
REMARK    4  A    between atoms: _6  and  _7
REMARK    5  A    between atoms: _10  and  _12
REMARK    6  A    between atoms: _12  and  _13
REMARK    7  A    between atoms: _12  and  _15
REMARK    8  A    between atoms: _15  and  _16
REMARK    9  A    between atoms: _19  and  _21
REMARK   10  A    between atoms: _21  and  _22
REMARK   11  A    between atoms: _21  and  _24
REMARK   12  A    between atoms: _24  and  _25
REMARK   13  A    between atoms: _35  and  _37
REMARK   14  A    between atoms: _37  and  _38
REMARK   15  A    between atoms: _37  and  _40
REMARK   16  A    between atoms: _40  and  _41
REMARK   17  A    between atoms: _44  and  _46
REMARK   18  A    between atoms: _46  and  _47
REMARK   19  A    between atoms: _46  and  _49
REMARK   20  A    between atoms: _49  and  _50
REMARK   21  A    between atoms: _50  and  _51
REMARK   22  A    between atoms: _53  and  _55
REMARK   23  A    between atoms: _55  and  _56
REMARK   24  A    between atoms: _55  and  _58
REMARK   25  A    between atoms: _58  and  _59
REMARK   26  A    between atoms: _62  and  _64
REMARK   27  A    between atoms: _64  and  _65
REMARK   28  A    between atoms: _64  and  _67
REMARK   29  A    between atoms: _67  and  _68
REMARK   30  A    between atoms: _71  and  _73
REMARK   31  A    between atoms: _73  and  _74
REMARK   32  A    between atoms: _73  and  _76
REMARK   33  A    between atoms: _76  and  _77
REMARK   34  A    between atoms: _80  and  _82
REMARK   35  A    between atoms: _82  and  _83
REMARK   36  A    between atoms: _82  and  _85
REMARK   37  A    between atoms: _85  and  _86
REMARK   38  A    between atoms: _91  and  _93
REMARK   39  A    between atoms: _93  and  _94
REMARK   40  A    between atoms: _93  and  _96
REMARK   41  A    between atoms: _96  and  _97
REMARK   42  A    between atoms: _97  and  _98
REMARK   43  A    between atoms: _100  and  _102
REMARK   44  A    between atoms: _102  and  _103
REMARK   45  A    between atoms: _102  and  _105
REMARK   46  A    between atoms: _105  and  _106
REMARK   47  A    between atoms: _109  and  _111
REMARK   48  A    between atoms: _111  and  _112
REMARK   49  A    between atoms: _114  and  _116
REMARK   50  A    between atoms: _116  and  _117
REMARK   51  A    between atoms: _119  and  _121
REMARK   52  A    between atoms: _121  and  _122
REMARK   53  A    between atoms: _121  and  _124
REMARK   54  A    between atoms: _124  and  _125
REMARK   55  A    between atoms: _125  and  _126
REMARK   56  A    between atoms: _126  and  _127
REMARK   57  A    between atoms: _136  and  _138
REMARK   58  A    between atoms: _138  and  _139
REMARK   59  A    between atoms: _138  and  _141
REMARK   60  A    between atoms: _141  and  _142
REMARK   61  A    between atoms: _142  and  _143
REMARK   62  A    between atoms: _148  and  _150
REMARK   63  A    between atoms: _150  and  _151
REMARK   64  A    between atoms: _150  and  _153
REMARK   65  A    between atoms: _156  and  _158
REMARK   66  A    between atoms: _158  and  _159
REMARK   67  A    between atoms: _158  and  _161
REMARK   68  A    between atoms: _161  and  _162
REMARK   69  A    between atoms: _172  and  _174
REMARK   70  A    between atoms: _174  and  _175
REMARK   71  A    between atoms: _174  and  _177
REMARK   72  A    between atoms: _177  and  _178
REMARK   73  A    between atoms: _178  and  _179
REMARK   74  A    between atoms: _181  and  _183
REMARK   75  A    between atoms: _183  and  _184
REMARK   76  A    between atoms: _187  and  _189
REMARK   77  A    between atoms: _189  and  _190
REMARK   78  A    between atoms: _189  and  _192
REMARK   79  A    between atoms: _192  and  _193
REMARK   80  A    between atoms: _196  and  _198
REMARK   81  A    between atoms: _198  and  _199
REMARK   82  A    between atoms: _198  and  _201
REMARK   83  A    between atoms: _201  and  _202
REMARK   84  A    between atoms: _202  and  _203
REMARK   85  A    between atoms: _205  and  _207
REMARK   86  A    between atoms: _207  and  _208
REMARK   87  A    between atoms: _211  and  _213
REMARK   88  A    between atoms: _213  and  _214
REMARK   89  A    between atoms: _213  and  _216
REMARK   90  A    between atoms: _216  and  _217
REMARK   91  A    between atoms: _223  and  _225
REMARK   92  A    between atoms: _225  and  _226
REMARK   93  A    between atoms: _229  and  _231
REMARK   94  A    between atoms: _231  and  _232
REMARK   95  A    between atoms: _231  and  _234
REMARK   96  A    between atoms: _234  and  _235
REMARK   97  A    between atoms: _238  and  _240
REMARK   98  A    between atoms: _240  and  _241
REMARK   99  A    between atoms: _243  and  _245
REMARK  100  A    between atoms: _245  and  _246
REMARK  101  A    between atoms: _245  and  _248
REMARK  102  A    between atoms: _248  and  _249
REMARK  103  A    between atoms: _249  and  _250
REMARK  104  A    between atoms: _250  and  _251
REMARK  105  A    between atoms: _260  and  _262
REMARK  106  A    between atoms: _262  and  _263
REMARK  107  A    between atoms: _262  and  _265
REMARK  108  A    between atoms: _265  and  _266
REMARK  109  A    between atoms: _268  and  _270
REMARK  110  A    between atoms: _270  and  _271
REMARK  111  A    between atoms: _270  and  _273
REMARK  112  A    between atoms: _273  and  _274
REMARK  113  A    between atoms: _277  and  _279
REMARK  114  A    between atoms: _279  and  _280
REMARK  115  A    between atoms: _279  and  _282
REMARK  116  A    between atoms: _282  and  _283
REMARK  117  A    between atoms: _288  and  _289
REMARK  118  A    between atoms: _291  and  _293
REMARK  119  A    between atoms: _293  and  _294
REMARK  120  A    between atoms: _293  and  _296
REMARK  121  A    between atoms: _296  and  _297
REMARK  122  A    between atoms: _303  and  _305
REMARK  123  A    between atoms: _305  and  _306
REMARK  124  A    between atoms: _309  and  _311
REMARK  125  A    between atoms: _311  and  _312
REMARK  126  A    between atoms: _311  and  _314
REMARK  127  A    between atoms: _314  and  _315
REMARK  128  A    between atoms: _318  and  _320
REMARK  129  A    between atoms: _320  and  _321
REMARK  130  A    between atoms: _320  and  _323
REMARK  131  A    between atoms: _323  and  _324
REMARK  132  A    between atoms: _327  and  _329
REMARK  133  A    between atoms: _329  and  _330
REMARK  134  A    between atoms: _329  and  _332
REMARK  135  A    between atoms: _332  and  _333
REMARK  136  A    between atoms: _333  and  _334
REMARK  137  A    between atoms: _334  and  _335
REMARK  138  A    between atoms: _344  and  _346
REMARK  139  A    between atoms: _346  and  _347
REMARK  140  A    between atoms: _346  and  _349
REMARK  141  A    between atoms: _349  and  _350
REMARK  142  A    between atoms: _350  and  _351
REMARK  143  A    between atoms: _353  and  _355
REMARK  144  A    between atoms: _355  and  _356
REMARK  145  A    between atoms: _355  and  _358
REMARK  146  A    between atoms: _358  and  _359
REMARK  147  A    between atoms: _363  and  _364
REMARK  148  A    between atoms: _369  and  _371
REMARK  149  A    between atoms: _371  and  _372
REMARK  150  A    between atoms: _371  and  _374
REMARK  151  A    between atoms: _376  and  _378
REMARK  152  A    between atoms: _378  and  _379
REMARK  153  A    between atoms: _378  and  _381
REMARK  154  A    between atoms: _381  and  _382
REMARK  155  A    between atoms: _382  and  _383
REMARK  156  A    between atoms: _385  and  _387
REMARK  157  A    between atoms: _387  and  _388
REMARK  158  A    between atoms: _387  and  _390
REMARK  159  A    between atoms: _390  and  _391
REMARK  160  A    between atoms: _396  and  _397
REMARK  161  A    between atoms: _399  and  _401
REMARK  162  A    between atoms: _401  and  _402
REMARK  163  A    between atoms: _401  and  _404
REMARK  164  A    between atoms: _404  and  _405
REMARK  165  A    between atoms: _408  and  _410
REMARK  166  A    between atoms: _410  and  _411
REMARK  167  A    between atoms: _410  and  _413
REMARK  168  A    between atoms: _413  and  _414
REMARK  169  A    between atoms: _414  and  _415
REMARK  170  A    between atoms: _420  and  _422
REMARK  171  A    between atoms: _422  and  _423
REMARK  172  A    between atoms: _422  and  _425
REMARK  173  A    between atoms: _427  and  _429
REMARK  174  A    between atoms: _429  and  _430
REMARK  175  A    between atoms: _429  and  _432
REMARK  176  A    between atoms: _432  and  _433
REMARK  177  A    between atoms: _433  and  _434
REMARK  178  A    between atoms: _434  and  _435
REMARK  179  A    between atoms: _435  and  _436
REMARK  180  A    between atoms: _440  and  _442
REMARK  181  A    between atoms: _442  and  _443
REMARK  182  A    between atoms: _442  and  _445
REMARK  183  A    between atoms: _445  and  _446
REMARK  184  A    between atoms: _451  and  _453
REMARK  185  A    between atoms: _453  and  _454
REMARK  186  A    between atoms: _453  and  _456
REMARK  187  A    between atoms: _456  and  _457
REMARK  188  A    between atoms: _457  and  _458
REMARK  189  A    between atoms: _460  and  _462
REMARK  190  A    between atoms: _462  and  _463
REMARK  191  A    between atoms: _462  and  _465
REMARK  192  A    between atoms: _468  and  _470
REMARK  193  A    between atoms: _470  and  _471
REMARK  194  A    between atoms: _470  and  _473
REMARK  195  A    between atoms: _476  and  _478
REMARK  196  A    between atoms: _478  and  _479
REMARK  197  A    between atoms: _478  and  _481
REMARK  198  A    between atoms: _481  and  _482
REMARK  199  A    between atoms: _487  and  _489
REMARK  200  A    between atoms: _489  and  _490
REMARK  201  A    between atoms: _489  and  _492
REMARK  202  A    between atoms: _492  and  _493
REMARK  203  A    between atoms: _496  and  _498
REMARK  204  A    between atoms: _498  and  _499
REMARK  205  A    between atoms: _498  and  _501
REMARK  206  A    between atoms: _501  and  _502
REMARK  207  A    between atoms: _505  and  _507
REMARK  208  A    between atoms: _507  and  _508
REMARK  209  A    between atoms: _507  and  _510
REMARK  210  A    between atoms: _510  and  _511
REMARK  211  A    between atoms: _516  and  _518
REMARK  212  A    between atoms: _518  and  _519
REMARK  213  A    between atoms: _518  and  _521
REMARK  214  A    between atoms: _521  and  _522
REMARK  215  A    between atoms: _527  and  _528
REMARK  216  A    between atoms: _530  and  _532
REMARK  217  A    between atoms: _532  and  _533
REMARK  218  A    between atoms: _532  and  _535
REMARK  219  A    between atoms: _537  and  _539
REMARK  220  A    between atoms: _539  and  _540
REMARK  221  A    between atoms: _539  and  _542
REMARK  222  A    between atoms: _542  and  _543
REMARK  223  A    between atoms: _549  and  _551
REMARK  224  A    between atoms: _551  and  _552
REMARK  225  A    between atoms: _551  and  _554
REMARK  226  A    between atoms: _554  and  _555
REMARK  227  A    between atoms: _555  and  _556
REMARK  228  A    between atoms: _561  and  _563
REMARK  229  A    between atoms: _563  and  _564
REMARK  230  A    between atoms: _563  and  _566
REMARK  231  A    between atoms: _566  and  _567
REMARK  232  A    between atoms: _570  and  _572
REMARK  233  A    between atoms: _572  and  _573
REMARK  234  A    between atoms: _572  and  _575
REMARK  235  A    between atoms: _575  and  _576
REMARK  236  A    between atoms: _582  and  _584
REMARK  237  A    between atoms: _584  and  _585
REMARK  238  A    between atoms: _584  and  _587
REMARK  239  A    between atoms: _587  and  _588
REMARK  240  A    between atoms: _588  and  _589
REMARK  241  A    between atoms: _591  and  _593
REMARK  242  A    between atoms: _593  and  _594
REMARK  243  A    between atoms: _593  and  _596
REMARK  244  A    between atoms: _596  and  _597
REMARK  245  A    between atoms: _600  and  _602
REMARK  246  A    between atoms: _602  and  _603
REMARK  247  A    between atoms: _602  and  _605
REMARK  248  A    between atoms: _605  and  _606
REMARK  249  A    between atoms: _606  and  _607
REMARK  250  A    between atoms: _610  and  _612
REMARK  251  A    between atoms: _612  and  _613
REMARK  252  A    between atoms: _612  and  _615
REMARK  253  A    between atoms: _615  and  _616
REMARK  254  A    between atoms: _623  and  _624
REMARK  255  A    between atoms: _629  and  _631
REMARK  256  A    between atoms: _631  and  _632
REMARK  257  A    between atoms: _631  and  _634
REMARK  258  A    between atoms: _634  and  _635
REMARK  259  A    between atoms: _638  and  _640
REMARK  260  A    between atoms: _640  and  _641
REMARK  261  A    between atoms: _640  and  _643
REMARK  262  A    between atoms: _643  and  _644
REMARK                            x       y       z     vdW  Elec       q    Type
REMARK                         _______ _______ _______ _____ _____    ______ ____
ROOT
ATOM      1  O   HOH     1      25.399 -57.231 -44.058  0.00  0.00    +0.000 OA
ENDROOT
TORSDOF 0
REMARK  Name = ../refined-set-2016/4p6w/4p6w_pocket.pdb
REMARK  262 active torsions:
REMARK  status: ('A' for Active; 'I' for Inactive)
REMARK    1  A    between atoms: _1  and  _3
REMARK    2  A    between atoms: _3  and  _4
REMARK    3  A    between atoms: _3  and  _6
REMARK    4  A    between atoms: _6  and  _7
REMARK    5  A    between atoms: _10  and  _12
REMARK    6  A    between atoms: _12  and  _13
REMARK    7  A    between atoms: _12  and  _15
REMARK    8  A    between atoms: _15  and  _16
REMARK    9  A    between atoms: _19  and  _21
REMARK   10  A    between atoms: _21  and  _22
REMARK   11  A    between atoms: _21  and  _24
REMARK   12  A    between atoms: _24  and  _25
REMARK   13  A    between atoms: _35  and  _37
REMARK   14  A    between atoms: _37  and  _38
REMARK   15  A    between atoms: _37  and  _40
REMARK   16  A    between atoms: _40  and  _41
REMARK   17  A    between atoms: _44  and  _46
REMARK   18  A    between atoms: _46  and  _47
REMARK   19  A    between atoms: _46  and  _49
REMARK   20  A    between atoms: _49  and  _50
REMARK   21  A    between atoms: _50  and  _51
REMARK   22  A    between atoms: _53  and  _55
REMARK   23  A    between atoms: _55  and  _56
REMARK   24  A    between atoms: _55  and  _58
REMARK   25  A    between atoms: _58  and  _59
REMARK   26  A    between atoms: _62  and  _64
REMARK   27  A    between atoms: _64  and  _65
REMARK   28  A    between atoms: _64  and  _67
REMARK   29  A    between atoms: _67  and  _68
REMARK   30  A    between atoms: _71  and  _73
REMARK   31  A    between atoms: _73  and  _74
REMARK   32  A    between atoms: _73  and  _76
REMARK   33  A    between atoms: _76  and  _77
REMARK   34  A    between atoms: _80  and  _82
REMARK   35  A    between atoms: _82  and  _83
REMARK   36  A    between atoms: _82  and  _85
REMARK   37  A    between atoms: _85  and  _86
REMARK   38  A    between atoms: _91  and  _93
REMARK   39  A    between atoms: _93  and  _94
REMARK   40  A    between atoms: _93  and  _96
REMARK   41  A    between atoms: _96  and  _97
REMARK   42  A    between atoms: _97  and  _98
REMARK   43  A    between atoms: _100  and  _102
REMARK   44  A    between atoms: _102  and  _103
REMARK   45  A    between atoms: _102  and  _105
REMARK   46  A    between atoms: _105  and  _106
REMARK   47  A    between atoms: _109  and  _111
REMARK   48  A    between atoms: _111  and  _112
REMARK   49  A    between atoms: _114  and  _116
REMARK   50  A    between atoms: _116  and  _117
REMARK   51  A    between atoms: _119  and  _121
REMARK   52  A    between atoms: _121  and  _122
REMARK   53  A    between atoms: _121  and  _124
REMARK   54  A    between atoms: _124  and  _125
REMARK   55  A    between atoms: _125  and  _126
REMARK   56  A    between atoms: _126  and  _127
REMARK   57  A    between atoms: _136  and  _138
REMARK   58  A    between atoms: _138  and  _139
REMARK   59  A    between atoms: _138  and  _141
REMARK   60  A    between atoms: _141  and  _142
REMARK   61  A    between atoms: _142  and  _143
REMARK   62  A    between atoms: _148  and  _150
REMARK   63  A    between atoms: _150  and  _151
REMARK   64  A    between atoms: _150  and  _153
REMARK   65  A    between atoms: _156  and  _158
REMARK   66  A    between atoms: _158  and  _159
REMARK   67  A    between atoms: _158  and  _161
REMARK   68  A    between atoms: _161  and  _162
REMARK   69  A    between atoms: _172  and  _174
REMARK   70  A    between atoms: _174  and  _175
REMARK   71  A    between atoms: _174  and  _177
REMARK   72  A    between atoms: _177  and  _178
REMARK   73  A    between atoms: _178  and  _179
REMARK   74  A    between atoms: _181  and  _183
REMARK   75  A    between atoms: _183  and  _184
REMARK   76  A    between atoms: _187  and  _189
REMARK   77  A    between atoms: _189  and  _190
REMARK   78  A    between atoms: _189  and  _192
REMARK   79  A    between atoms: _192  and  _193
REMARK   80  A    between atoms: _196  and  _198
REMARK   81  A    between atoms: _198  and  _199
REMARK   82  A    between atoms: _198  and  _201
REMARK   83  A    between atoms: _201  and  _202
REMARK   84  A    between atoms: _202  and  _203
REMARK   85  A    between atoms: _205  and  _207
REMARK   86  A    between atoms: _207  and  _208
REMARK   87  A    between atoms: _211  and  _213
REMARK   88  A    between atoms: _213  and  _214
REMARK   89  A    between atoms: _213  and  _216
REMARK   90  A    between atoms: _216  and  _217
REMARK   91  A    between atoms: _223  and  _225
REMARK   92  A    between atoms: _225  and  _226
REMARK   93  A    between atoms: _229  and  _231
REMARK   94  A    between atoms: _231  and  _232
REMARK   95  A    between atoms: _231  and  _234
REMARK   96  A    between atoms: _234  and  _235
REMARK   97  A    between atoms: _238  and  _240
REMARK   98  A    between atoms: _240  and  _241
REMARK   99  A    between atoms: _243  and  _245
REMARK  100  A    between atoms: _245  and  _246
REMARK  101  A    between atoms: _245  and  _248
REMARK  102  A    between atoms: _248  and  _249
REMARK  103  A    between atoms: _249  and  _250
REMARK  104  A    between atoms: _250  and  _251
REMARK  105  A    between atoms: _260  and  _262
REMARK  106  A    between atoms: _262  and  _263
REMARK  107  A    between atoms: _262  and  _265
REMARK  108  A    between atoms: _265  and  _266
REMARK  109  A    between atoms: _268  and  _270
REMARK  110  A    between atoms: _270  and  _271
REMARK  111  A    between atoms: _270  and  _273
REMARK  112  A    between atoms: _273  and  _274
REMARK  113  A    between atoms: _277  and  _279
REMARK  114  A    between atoms: _279  and  _280
REMARK  115  A    between atoms: _279  and  _282
REMARK  116  A    between atoms: _282  and  _283
REMARK  117  A    between atoms: _288  and  _289
REMARK  118  A    between atoms: _291  and  _293
REMARK  119  A    between atoms: _293  and  _294
REMARK  120  A    between atoms: _293  and  _296
REMARK  121  A    between atoms: _296  and  _297
REMARK  122  A    between atoms: _303  and  _305
REMARK  123  A    between atoms: _305  and  _306
REMARK  124  A    between atoms: _309  and  _311
REMARK  125  A    between atoms: _311  and  _312
REMARK  126  A    between atoms: _311  and  _314
REMARK  127  A    between atoms: _314  and  _315
REMARK  128  A    between atoms: _318  and  _320
REMARK  129  A    between atoms: _320  and  _321
REMARK  130  A    between atoms: _320  and  _323
REMARK  131  A    between atoms: _323  and  _324
REMARK  132  A    between atoms: _327  and  _329
REMARK  133  A    between atoms: _329  and  _330
REMARK  134  A    between atoms: _329  and  _332
REMARK  135  A    between atoms: _332  and  _333
REMARK  136  A    between atoms: _333  and  _334
REMARK  137  A    between atoms: _334  and  _335
REMARK  138  A    between atoms: _344  and  _346
REMARK  139  A    between atoms: _346  and  _347
REMARK  140  A    between atoms: _346  and  _349
REMARK  141  A    between atoms: _349  and  _350
REMARK  142  A    between atoms: _350  and  _351
REMARK  143  A    between atoms: _353  and  _355
REMARK  144  A    between atoms: _355  and  _356
REMARK  145  A    between atoms: _355  and  _358
REMARK  146  A    between atoms: _358  and  _359
REMARK  147  A    between atoms: _363  and  _364
REMARK  148  A    between atoms: _369  and  _371
REMARK  149  A    between atoms: _371  and  _372
REMARK  150  A    between atoms: _371  and  _374
REMARK  151  A    between atoms: _376  and  _378
REMARK  152  A    between atoms: _378  and  _379
REMARK  153  A    between atoms: _378  and  _381
REMARK  154  A    between atoms: _381  and  _382
REMARK  155  A    between atoms: _382  and  _383
REMARK  156  A    between atoms: _385  and  _387
REMARK  157  A    between atoms: _387  and  _388
REMARK  158  A    between atoms: _387  and  _390
REMARK  159  A    between atoms: _390  and  _391
REMARK  160  A    between atoms: _396  and  _397
REMARK  161  A    between atoms: _399  and  _401
REMARK  162  A    between atoms: _401  and  _402
REMARK  163  A    between atoms: _401  and  _404
REMARK  164  A    between atoms: _404  and  _405
REMARK  165  A    between atoms: _408  and  _410
REMARK  166  A    between atoms: _410  and  _411
REMARK  167  A    between atoms: _410  and  _413
REMARK  168  A    between atoms: _413  and  _414
REMARK  169  A    between atoms: _414  and  _415
REMARK  170  A    between atoms: _420  and  _422
REMARK  171  A    between atoms: _422  and  _423
REMARK  172  A    between atoms: _422  and  _425
REMARK  173  A    between atoms: _427  and  _429
REMARK  174  A    between atoms: _429  and  _430
REMARK  175  A    between atoms: _429  and  _432
REMARK  176  A    between atoms: _432  and  _433
REMARK  177  A    between atoms: _433  and  _434
REMARK  178  A    between atoms: _434  and  _435
REMARK  179  A    between atoms: _435  and  _436
REMARK  180  A    between atoms: _440  and  _442
REMARK  181  A    between atoms: _442  and  _443
REMARK  182  A    between atoms: _442  and  _445
REMARK  183  A    between atoms: _445  and  _446
REMARK  184  A    between atoms: _451  and  _453
REMARK  185  A    between atoms: _453  and  _454
REMARK  186  A    between atoms: _453  and  _456
REMARK  187  A    between atoms: _456  and  _457
REMARK  188  A    between atoms: _457  and  _458
REMARK  189  A    between atoms: _460  and  _462
REMARK  190  A    between atoms: _462  and  _463
REMARK  191  A    between atoms: _462  and  _465
REMARK  192  A    between atoms: _468  and  _470
REMARK  193  A    between atoms: _470  and  _471
REMARK  194  A    between atoms: _470  and  _473
REMARK  195  A    between atoms: _476  and  _478
REMARK  196  A    between atoms: _478  and  _479
REMARK  197  A    between atoms: _478  and  _481
REMARK  198  A    between atoms: _481  and  _482
REMARK  199  A    between atoms: _487  and  _489
REMARK  200  A    between atoms: _489  and  _490
REMARK  201  A    between atoms: _489  and  _492
REMARK  202  A    between atoms: _492  and  _493
REMARK  203  A    between atoms: _496  and  _498
REMARK  204  A    between atoms: _498  and  _499
REMARK  205  A    between atoms: _498  and  _501
REMARK  206  A    between atoms: _501  and  _502
REMARK  207  A    between atoms: _505  and  _507
REMARK  208  A    between atoms: _507  and  _508
REMARK  209  A    between atoms: _507  and  _510
REMARK  210  A    between atoms: _510  and  _511
REMARK  211  A    between atoms: _516  and  _518
REMARK  212  A    between atoms: _518  and  _519
REMARK  213  A    between atoms: _518  and  _521
REMARK  214  A    between atoms: _521  and  _522
REMARK  215  A    between atoms: _527  and  _528
REMARK  216  A    between atoms: _530  and  _532
REMARK  217  A    between atoms: _532  and  _533
REMARK  218  A    between atoms: _532  and  _535
REMARK  219  A    between atoms: _537  and  _539
REMARK  220  A    between atoms: _539  and  _540
REMARK  221  A    between atoms: _539  and  _542
REMARK  222  A    between atoms: _542  and  _543
REMARK  223  A    between atoms: _549  and  _551
REMARK  224  A    between atoms: _551  and  _552
REMARK  225  A    between atoms: _551  and  _554
REMARK  226  A    between atoms: _554  and  _555
REMARK  227  A    between atoms: _555  and  _556
REMARK  228  A    between atoms: _561  and  _563
REMARK  229  A    between atoms: _563  and  _564
REMARK  230  A    between atoms: _563  and  _566
REMARK  231  A    between atoms: _566  and  _567
REMARK  232  A    between atoms: _570  and  _572
REMARK  233  A    between atoms: _572  and  _573
REMARK  234  A    between atoms: _572  and  _575
REMARK  235  A    between atoms: _575  and  _576
REMARK  236  A    between atoms: _582  and  _584
REMARK  237  A    between atoms: _584  and  _585
REMARK  238  A    between atoms: _584  and  _587
REMARK  239  A    between atoms: _587  and  _588
REMARK  240  A    between atoms: _588  and  _589
REMARK  241  A    between atoms: _591  and  _593
REMARK  242  A    between atoms: _593  and  _594
REMARK  243  A    between atoms: _593  and  _596
REMARK  244  A    between atoms: _596  and  _597
REMARK  245  A    between atoms: _600  and  _602
REMARK  246  A    between atoms: _602  and  _603
REMARK  247  A    between atoms: _602  and  _605
REMARK  248  A    between atoms: _605  and  _606
REMARK  249  A    between atoms: _606  and  _607
REMARK  250  A    between atoms: _610  and  _612
REMARK  251  A    between atoms: _612  and  _613
REMARK  252  A    between atoms: _612  and  _615
REMARK  253  A    between atoms: _615  and  _616
REMARK  254  A    between atoms: _623  and  _624
REMARK  255  A    between atoms: _629  and  _631
REMARK  256  A    between atoms: _631  and  _632
REMARK  257  A    between atoms: _631  and  _634
REMARK  258  A    between atoms: _634  and  _635
REMARK  259  A    between atoms: _638  and  _640
REMARK  260  A    between atoms: _640  and  _641
REMARK  261  A    between atoms: _640  and  _643
REMARK  262  A    between atoms: _643  and  _644
REMARK                            x       y       z     vdW  Elec       q    Type
REMARK                         _______ _______ _______ _____ _____    ______ ____
ROOT
ATOM      1  O   HOH     1      22.536 -60.237 -37.509  0.00  0.00    +0.000 OA
ENDROOT
TORSDOF 0
REMARK  Name = ../refined-set-2016/4p6w/4p6w_pocket.pdb
REMARK  262 active torsions:
REMARK  status: ('A' for Active; 'I' for Inactive)
REMARK    1  A    between atoms: _1  and  _3
REMARK    2  A    between atoms: _3  and  _4
REMARK    3  A    between atoms: _3  and  _6
REMARK    4  A    between atoms: _6  and  _7
REMARK    5  A    between atoms: _10  and  _12
REMARK    6  A    between atoms: _12  and  _13
REMARK    7  A    between atoms: _12  and  _15
REMARK    8  A    between atoms: _15  and  _16
REMARK    9  A    between atoms: _19  and  _21
REMARK   10  A    between atoms: _21  and  _22
REMARK   11  A    between atoms: _21  and  _24
REMARK   12  A    between atoms: _24  and  _25
REMARK   13  A    between atoms: _35  and  _37
REMARK   14  A    between atoms: _37  and  _38
REMARK   15  A    between atoms: _37  and  _40
REMARK   16  A    between atoms: _40  and  _41
REMARK   17  A    between atoms: _44  and  _46
REMARK   18  A    between atoms: _46  and  _47
REMARK   19  A    between atoms: _46  and  _49
REMARK   20  A    between atoms: _49  and  _50
REMARK   21  A    between atoms: _50  and  _51
REMARK   22  A    between atoms: _53  and  _55
REMARK   23  A    between atoms: _55  and  _56
REMARK   24  A    between atoms: _55  and  _58
REMARK   25  A    between atoms: _58  and  _59
REMARK   26  A    between atoms: _62  and  _64
REMARK   27  A    between atoms: _64  and  _65
REMARK   28  A    between atoms: _64  and  _67
REMARK   29  A    between atoms: _67  and  _68
REMARK   30  A    between atoms: _71  and  _73
REMARK   31  A    between atoms: _73  and  _74
REMARK   32  A    between atoms: _73  and  _76
REMARK   33  A    between atoms: _76  and  _77
REMARK   34  A    between atoms: _80  and  _82
REMARK   35  A    between atoms: _82  and  _83
REMARK   36  A    between atoms: _82  and  _85
REMARK   37  A    between atoms: _85  and  _86
REMARK   38  A    between atoms: _91  and  _93
REMARK   39  A    between atoms: _93  and  _94
REMARK   40  A    between atoms: _93  and  _96
REMARK   41  A    between atoms: _96  and  _97
REMARK   42  A    between atoms: _97  and  _98
REMARK   43  A    between atoms: _100  and  _102
REMARK   44  A    between atoms: _102  and  _103
REMARK   45  A    between atoms: _102  and  _105
REMARK   46  A    between atoms: _105  and  _106
REMARK   47  A    between atoms: _109  and  _111
REMARK   48  A    between atoms: _111  and  _112
REMARK   49  A    between atoms: _114  and  _116
REMARK   50  A    between atoms: _116  and  _117
REMARK   51  A    between atoms: _119  and  _121
REMARK   52  A    between atoms: _121  and  _122
REMARK   53  A    between atoms: _121  and  _124
REMARK   54  A    between atoms: _124  and  _125
REMARK   55  A    between atoms: _125  and  _126
REMARK   56  A    between atoms: _126  and  _127
REMARK   57  A    between atoms: _136  and  _138
REMARK   58  A    between atoms: _138  and  _139
REMARK   59  A    between atoms: _138  and  _141
REMARK   60  A    between atoms: _141  and  _142
REMARK   61  A    between atoms: _142  and  _143
REMARK   62  A    between atoms: _148  and  _150
REMARK   63  A    between atoms: _150  and  _151
REMARK   64  A    between atoms: _150  and  _153
REMARK   65  A    between atoms: _156  and  _158
REMARK   66  A    between atoms: _158  and  _159
REMARK   67  A    between atoms: _158  and  _161
REMARK   68  A    between atoms: _161  and  _162
REMARK   69  A    between atoms: _172  and  _174
REMARK   70  A    between atoms: _174  and  _175
REMARK   71  A    between atoms: _174  and  _177
REMARK   72  A    between atoms: _177  and  _178
REMARK   73  A    between atoms: _178  and  _179
REMARK   74  A    between atoms: _181  and  _183
REMARK   75  A    between atoms: _183  and  _184
REMARK   76  A    between atoms: _187  and  _189
REMARK   77  A    between atoms: _189  and  _190
REMARK   78  A    between atoms: _189  and  _192
REMARK   79  A    between atoms: _192  and  _193
REMARK   80  A    between atoms: _196  and  _198
REMARK   81  A    between atoms: _198  and  _199
REMARK   82  A    between atoms: _198  and  _201
REMARK   83  A    between atoms: _201  and  _202
REMARK   84  A    between atoms: _202  and  _203
REMARK   85  A    between atoms: _205  and  _207
REMARK   86  A    between atoms: _207  and  _208
REMARK   87  A    between atoms: _211  and  _213
REMARK   88  A    between atoms: _213  and  _214
REMARK   89  A    between atoms: _213  and  _216
REMARK   90  A    between atoms: _216  and  _217
REMARK   91  A    between atoms: _223  and  _225
REMARK   92  A    between atoms: _225  and  _226
REMARK   93  A    between atoms: _229  and  _231
REMARK   94  A    between atoms: _231  and  _232
REMARK   95  A    between atoms: _231  and  _234
REMARK   96  A    between atoms: _234  and  _235
REMARK   97  A    between atoms: _238  and  _240
REMARK   98  A    between atoms: _240  and  _241
REMARK   99  A    between atoms: _243  and  _245
REMARK  100  A    between atoms: _245  and  _246
REMARK  101  A    between atoms: _245  and  _248
REMARK  102  A    between atoms: _248  and  _249
REMARK  103  A    between atoms: _249  and  _250
REMARK  104  A    between atoms: _250  and  _251
REMARK  105  A    between atoms: _260  and  _262
REMARK  106  A    between atoms: _262  and  _263
REMARK  107  A    between atoms: _262  and  _265
REMARK  108  A    between atoms: _265  and  _266
REMARK  109  A    between atoms: _268  and  _270
REMARK  110  A    between atoms: _270  and  _271
REMARK  111  A    between atoms: _270  and  _273
REMARK  112  A    between atoms: _273  and  _274
REMARK  113  A    between atoms: _277  and  _279
REMARK  114  A    between atoms: _279  and  _280
REMARK  115  A    between atoms: _279  and  _282
REMARK  116  A    between atoms: _282  and  _283
REMARK  117  A    between atoms: _288  and  _289
REMARK  118  A    between atoms: _291  and  _293
REMARK  119  A    between atoms: _293  and  _294
REMARK  120  A    between atoms: _293  and  _296
REMARK  121  A    between atoms: _296  and  _297
REMARK  122  A    between atoms: _303  and  _305
REMARK  123  A    between atoms: _305  and  _306
REMARK  124  A    between atoms: _309  and  _311
REMARK  125  A    between atoms: _311  and  _312
REMARK  126  A    between atoms: _311  and  _314
REMARK  127  A    between atoms: _314  and  _315
REMARK  128  A    between atoms: _318  and  _320
REMARK  129  A    between atoms: _320  and  _321
REMARK  130  A    between atoms: _320  and  _323
REMARK  131  A    between atoms: _323  and  _324
REMARK  132  A    between atoms: _327  and  _329
REMARK  133  A    between atoms: _329  and  _330
REMARK  134  A    between atoms: _329  and  _332
REMARK  135  A    between atoms: _332  and  _333
REMARK  136  A    between atoms: _333  and  _334
REMARK  137  A    between atoms: _334  and  _335
REMARK  138  A    between atoms: _344  and  _346
REMARK  139  A    between atoms: _346  and  _347
REMARK  140  A    between atoms: _346  and  _349
REMARK  141  A    between atoms: _349  and  _350
REMARK  142  A    between atoms: _350  and  _351
REMARK  143  A    between atoms: _353  and  _355
REMARK  144  A    between atoms: _355  and  _356
REMARK  145  A    between atoms: _355  and  _358
REMARK  146  A    between atoms: _358  and  _359
REMARK  147  A    between atoms: _363  and  _364
REMARK  148  A    between atoms: _369  and  _371
REMARK  149  A    between atoms: _371  and  _372
REMARK  150  A    between atoms: _371  and  _374
REMARK  151  A    between atoms: _376  and  _378
REMARK  152  A    between atoms: _378  and  _379
REMARK  153  A    between atoms: _378  and  _381
REMARK  154  A    between atoms: _381  and  _382
REMARK  155  A    between atoms: _382  and  _383
REMARK  156  A    between atoms: _385  and  _387
REMARK  157  A    between atoms: _387  and  _388
REMARK  158  A    between atoms: _387  and  _390
REMARK  159  A    between atoms: _390  and  _391
REMARK  160  A    between atoms: _396  and  _397
REMARK  161  A    between atoms: _399  and  _401
REMARK  162  A    between atoms: _401  and  _402
REMARK  163  A    between atoms: _401  and  _404
REMARK  164  A    between atoms: _404  and  _405
REMARK  165  A    between atoms: _408  and  _410
REMARK  166  A    between atoms: _410  and  _411
REMARK  167  A    between atoms: _410  and  _413
REMARK  168  A    between atoms: _413  and  _414
REMARK  169  A    between atoms: _414  and  _415
REMARK  170  A    between atoms: _420  and  _422
REMARK  171  A    between atoms: _422  and  _423
REMARK  172  A    between atoms: _422  and  _425
REMARK  173  A    between atoms: _427  and  _429
REMARK  174  A    between atoms: _429  and  _430
REMARK  175  A    between atoms: _429  and  _432
REMARK  176  A    between atoms: _432  and  _433
REMARK  177  A    between atoms: _433  and  _434
REMARK  178  A    between atoms: _434  and  _435
REMARK  179  A    between atoms: _435  and  _436
REMARK  180  A    between atoms: _440  and  _442
REMARK  181  A    between atoms: _442  and  _443
REMARK  182  A    between atoms: _442  and  _445
REMARK  183  A    between atoms: _445  and  _446
REMARK  184  A    between atoms: _451  and  _453
REMARK  185  A    between atoms: _453  and  _454
REMARK  186  A    between atoms: _453  and  _456
REMARK  187  A    between atoms: _456  and  _457
REMARK  188  A    between atoms: _457  and  _458
REMARK  189  A    between atoms: _460  and  _462
REMARK  190  A    between atoms: _462  and  _463
REMARK  191  A    between atoms: _462  and  _465
REMARK  192  A    between atoms: _468  and  _470
REMARK  193  A    between atoms: _470  and  _471
REMARK  194  A    between atoms: _470  and  _473
REMARK  195  A    between atoms: _476  and  _478
REMARK  196  A    between atoms: _478  and  _479
REMARK  197  A    between atoms: _478  and  _481
REMARK  198  A    between atoms: _481  and  _482
REMARK  199  A    between atoms: _487  and  _489
REMARK  200  A    between atoms: _489  and  _490
REMARK  201  A    between atoms: _489  and  _492
REMARK  202  A    between atoms: _492  and  _493
REMARK  203  A    between atoms: _496  and  _498
REMARK  204  A    between atoms: _498  and  _499
REMARK  205  A    between atoms: _498  and  _501
REMARK  206  A    between atoms: _501  and  _502
REMARK  207  A    between atoms: _505  and  _507
REMARK  208  A    between atoms: _507  and  _508
REMARK  209  A    between atoms: _507  and  _510
REMARK  210  A    between atoms: _510  and  _511
REMARK  211  A    between atoms: _516  and  _518
REMARK  212  A    between atoms: _518  and  _519
REMARK  213  A    between atoms: _518  and  _521
REMARK  214  A    between atoms: _521  and  _522
REMARK  215  A    between atoms: _527  and  _528
REMARK  216  A    between atoms: _530  and  _532
REMARK  217  A    between atoms: _532  and  _533
REMARK  218  A    between atoms: _532  and  _535
REMARK  219  A    between atoms: _537  and  _539
REMARK  220  A    between atoms: _539  and  _540
REMARK  221  A    between atoms: _539  and  _542
REMARK  222  A    between atoms: _542  and  _543
REMARK  223  A    between atoms: _549  and  _551
REMARK  224  A    between atoms: _551  and  _552
REMARK  225  A    between atoms: _551  and  _554
REMARK  226  A    between atoms: _554  and  _555
REMARK  227  A    between atoms: _555  and  _556
REMARK  228  A    between atoms: _561  and  _563
REMARK  229  A    between atoms: _563  and  _564
REMARK  230  A    between atoms: _563  and  _566
REMARK  231  A    between atoms: _566  and  _567
REMARK  232  A    between atoms: _570  and  _572
REMARK  233  A    between atoms: _572  and  _573
REMARK  234  A    between atoms: _572  and  _575
REMARK  235  A    between atoms: _575  and  _576
REMARK  236  A    between atoms: _582  and  _584
REMARK  237  A    between atoms: _584  and  _585
REMARK  238  A    between atoms: _584  and  _587
REMARK  239  A    between atoms: _587  and  _588
REMARK  240  A    between atoms: _588  and  _589
REMARK  241  A    between atoms: _591  and  _593
REMARK  242  A    between atoms: _593  and  _594
REMARK  243  A    between atoms: _593  and  _596
REMARK  244  A    between atoms: _596  and  _597
REMARK  245  A    between atoms: _600  and  _602
REMARK  246  A    between atoms: _602  and  _603
REMARK  247  A    between atoms: _602  and  _605
REMARK  248  A    between atoms: _605  and  _606
REMARK  249  A    between atoms: _606  and  _607
REMARK  250  A    between atoms: _610  and  _612
REMARK  251  A    between atoms: _612  and  _613
REMARK  252  A    between atoms: _612  and  _615
REMARK  253  A    between atoms: _615  and  _616
REMARK  254  A    between atoms: _623  and  _624
REMARK  255  A    between atoms: _629  and  _631
REMARK  256  A    between atoms: _631  and  _632
REMARK  257  A    between atoms: _631  and  _634
REMARK  258  A    between atoms: _634  and  _635
REMARK  259  A    between atoms: _638  and  _640
REMARK  260  A    between atoms: _640  and  _641
REMARK  261  A    between atoms: _640  and  _643
REMARK  262  A    between atoms: _643  and  _644
REMARK                            x       y       z     vdW  Elec       q    Type
REMARK                         _______ _______ _______ _____ _____    ______ ____
ROOT
ATOM      1  O   HOH     1      28.803 -57.876 -48.089  0.00  0.00    +0.000 OA
ENDROOT
TORSDOF 0
REMARK  Name = ../refined-set-2016/4p6w/4p6w_pocket.pdb
REMARK  262 active torsions:
REMARK  status: ('A' for Active; 'I' for Inactive)
REMARK    1  A    between atoms: _1  and  _3
REMARK    2  A    between atoms: _3  and  _4
REMARK    3  A    between atoms: _3  and  _6
REMARK    4  A    between atoms: _6  and  _7
REMARK    5  A    between atoms: _10  and  _12
REMARK    6  A    between atoms: _12  and  _13
REMARK    7  A    between atoms: _12  and  _15
REMARK    8  A    between atoms: _15  and  _16
REMARK    9  A    between atoms: _19  and  _21
REMARK   10  A    between atoms: _21  and  _22
REMARK   11  A    between atoms: _21  and  _24
REMARK   12  A    between atoms: _24  and  _25
REMARK   13  A    between atoms: _35  and  _37
REMARK   14  A    between atoms: _37  and  _38
REMARK   15  A    between atoms: _37  and  _40
REMARK   16  A    between atoms: _40  and  _41
REMARK   17  A    between atoms: _44  and  _46
REMARK   18  A    between atoms: _46  and  _47
REMARK   19  A    between atoms: _46  and  _49
REMARK   20  A    between atoms: _49  and  _50
REMARK   21  A    between atoms: _50  and  _51
REMARK   22  A    between atoms: _53  and  _55
REMARK   23  A    between atoms: _55  and  _56
REMARK   24  A    between atoms: _55  and  _58
REMARK   25  A    between atoms: _58  and  _59
REMARK   26  A    between atoms: _62  and  _64
REMARK   27  A    between atoms: _64  and  _65
REMARK   28  A    between atoms: _64  and  _67
REMARK   29  A    between atoms: _67  and  _68
REMARK   30  A    between atoms: _71  and  _73
REMARK   31  A    between atoms: _73  and  _74
REMARK   32  A    between atoms: _73  and  _76
REMARK   33  A    between atoms: _76  and  _77
REMARK   34  A    between atoms: _80  and  _82
REMARK   35  A    between atoms: _82  and  _83
REMARK   36  A    between atoms: _82  and  _85
REMARK   37  A    between atoms: _85  and  _86
REMARK   38  A    between atoms: _91  and  _93
REMARK   39  A    between atoms: _93  and  _94
REMARK   40  A    between atoms: _93  and  _96
REMARK   41  A    between atoms: _96  and  _97
REMARK   42  A    between atoms: _97  and  _98
REMARK   43  A    between atoms: _100  and  _102
REMARK   44  A    between atoms: _102  and  _103
REMARK   45  A    between atoms: _102  and  _105
REMARK   46  A    between atoms: _105  and  _106
REMARK   47  A    between atoms: _109  and  _111
REMARK   48  A    between atoms: _111  and  _112
REMARK   49  A    between atoms: _114  and  _116
REMARK   50  A    between atoms: _116  and  _117
REMARK   51  A    between atoms: _119  and  _121
REMARK   52  A    between atoms: _121  and  _122
REMARK   53  A    between atoms: _121  and  _124
REMARK   54  A    between atoms: _124  and  _125
REMARK   55  A    between atoms: _125  and  _126
REMARK   56  A    between atoms: _126  and  _127
REMARK   57  A    between atoms: _136  and  _138
REMARK   58  A    between atoms: _138  and  _139
REMARK   59  A    between atoms: _138  and  _141
REMARK   60  A    between atoms: _141  and  _142
REMARK   61  A    between atoms: _142  and  _143
REMARK   62  A    between atoms: _148  and  _150
REMARK   63  A    between atoms: _150  and  _151
REMARK   64  A    between atoms: _150  and  _153
REMARK   65  A    between atoms: _156  and  _158
REMARK   66  A    between atoms: _158  and  _159
REMARK   67  A    between atoms: _158  and  _161
REMARK   68  A    between atoms: _161  and  _162
REMARK   69  A    between atoms: _172  and  _174
REMARK   70  A    between atoms: _174  and  _175
REMARK   71  A    between atoms: _174  and  _177
REMARK   72  A    between atoms: _177  and  _178
REMARK   73  A    between atoms: _178  and  _179
REMARK   74  A    between atoms: _181  and  _183
REMARK   75  A    between atoms: _183  and  _184
REMARK   76  A    between atoms: _187  and  _189
REMARK   77  A    between atoms: _189  and  _190
REMARK   78  A    between atoms: _189  and  _192
REMARK   79  A    between atoms: _192  and  _193
REMARK   80  A    between atoms: _196  and  _198
REMARK   81  A    between atoms: _198  and  _199
REMARK   82  A    between atoms: _198  and  _201
REMARK   83  A    between atoms: _201  and  _202
REMARK   84  A    between atoms: _202  and  _203
REMARK   85  A    between atoms: _205  and  _207
REMARK   86  A    between atoms: _207  and  _208
REMARK   87  A    between atoms: _211  and  _213
REMARK   88  A    between atoms: _213  and  _214
REMARK   89  A    between atoms: _213  and  _216
REMARK   90  A    between atoms: _216  and  _217
REMARK   91  A    between atoms: _223  and  _225
REMARK   92  A    between atoms: _225  and  _226
REMARK   93  A    between atoms: _229  and  _231
REMARK   94  A    between atoms: _231  and  _232
REMARK   95  A    between atoms: _231  and  _234
REMARK   96  A    between atoms: _234  and  _235
REMARK   97  A    between atoms: _238  and  _240
REMARK   98  A    between atoms: _240  and  _241
REMARK   99  A    between atoms: _243  and  _245
REMARK  100  A    between atoms: _245  and  _246
REMARK  101  A    between atoms: _245  and  _248
REMARK  102  A    between atoms: _248  and  _249
REMARK  103  A    between atoms: _249  and  _250
REMARK  104  A    between atoms: _250  and  _251
REMARK  105  A    between atoms: _260  and  _262
REMARK  106  A    between atoms: _262  and  _263
REMARK  107  A    between atoms: _262  and  _265
REMARK  108  A    between atoms: _265  and  _266
REMARK  109  A    between atoms: _268  and  _270
REMARK  110  A    between atoms: _270  and  _271
REMARK  111  A    between atoms: _270  and  _273
REMARK  112  A    between atoms: _273  and  _274
REMARK  113  A    between atoms: _277  and  _279
REMARK  114  A    between atoms: _279  and  _280
REMARK  115  A    between atoms: _279  and  _282
REMARK  116  A    between atoms: _282  and  _283
REMARK  117  A    between atoms: _288  and  _289
REMARK  118  A    between atoms: _291  and  _293
REMARK  119  A    between atoms: _293  and  _294
REMARK  120  A    between atoms: _293  and  _296
REMARK  121  A    between atoms: _296  and  _297
REMARK  122  A    between atoms: _303  and  _305
REMARK  123  A    between atoms: _305  and  _306
REMARK  124  A    between atoms: _309  and  _311
REMARK  125  A    between atoms: _311  and  _312
REMARK  126  A    between atoms: _311  and  _314
REMARK  127  A    between atoms: _314  and  _315
REMARK  128  A    between atoms: _318  and  _320
REMARK  129  A    between atoms: _320  and  _321
REMARK  130  A    between atoms: _320  and  _323
REMARK  131  A    between atoms: _323  and  _324
REMARK  132  A    between atoms: _327  and  _329
REMARK  133  A    between atoms: _329  and  _330
REMARK  134  A    between atoms: _329  and  _332
REMARK  135  A    between atoms: _332  and  _333
REMARK  136  A    between atoms: _333  and  _334
REMARK  137  A    between atoms: _334  and  _335
REMARK  138  A    between atoms: _344  and  _346
REMARK  139  A    between atoms: _346  and  _347
REMARK  140  A    between atoms: _346  and  _349
REMARK  141  A    between atoms: _349  and  _350
REMARK  142  A    between atoms: _350  and  _351
REMARK  143  A    between atoms: _353  and  _355
REMARK  144  A    between atoms: _355  and  _356
REMARK  145  A    between atoms: _355  and  _358
REMARK  146  A    between atoms: _358  and  _359
REMARK  147  A    between atoms: _363  and  _364
REMARK  148  A    between atoms: _369  and  _371
REMARK  149  A    between atoms: _371  and  _372
REMARK  150  A    between atoms: _371  and  _374
REMARK  151  A    between atoms: _376  and  _378
REMARK  152  A    between atoms: _378  and  _379
REMARK  153  A    between atoms: _378  and  _381
REMARK  154  A    between atoms: _381  and  _382
REMARK  155  A    between atoms: _382  and  _383
REMARK  156  A    between atoms: _385  and  _387
REMARK  157  A    between atoms: _387  and  _388
REMARK  158  A    between atoms: _387  and  _390
REMARK  159  A    between atoms: _390  and  _391
REMARK  160  A    between atoms: _396  and  _397
REMARK  161  A    between atoms: _399  and  _401
REMARK  162  A    between atoms: _401  and  _402
REMARK  163  A    between atoms: _401  and  _404
REMARK  164  A    between atoms: _404  and  _405
REMARK  165  A    between atoms: _408  and  _410
REMARK  166  A    between atoms: _410  and  _411
REMARK  167  A    between atoms: _410  and  _413
REMARK  168  A    between atoms: _413  and  _414
REMARK  169  A    between atoms: _414  and  _415
REMARK  170  A    between atoms: _420  and  _422
REMARK  171  A    between atoms: _422  and  _423
REMARK  172  A    between atoms: _422  and  _425
REMARK  173  A    between atoms: _427  and  _429
REMARK  174  A    between atoms: _429  and  _430
REMARK  175  A    between atoms: _429  and  _432
REMARK  176  A    between atoms: _432  and  _433
REMARK  177  A    between atoms: _433  and  _434
REMARK  178  A    between atoms: _434  and  _435
REMARK  179  A    between atoms: _435  and  _436
REMARK  180  A    between atoms: _440  and  _442
REMARK  181  A    between atoms: _442  and  _443
REMARK  182  A    between atoms: _442  and  _445
REMARK  183  A    between atoms: _445  and  _446
REMARK  184  A    between atoms: _451  and  _453
REMARK  185  A    between atoms: _453  and  _454
REMARK  186  A    between atoms: _453  and  _456
REMARK  187  A    between atoms: _456  and  _457
REMARK  188  A    between atoms: _457  and  _458
REMARK  189  A    between atoms: _460  and  _462
REMARK  190  A    between atoms: _462  and  _463
REMARK  191  A    between atoms: _462  and  _465
REMARK  192  A    between atoms: _468  and  _470
REMARK  193  A    between atoms: _470  and  _471
REMARK  194  A    between atoms: _470  and  _473
REMARK  195  A    between atoms: _476  and  _478
REMARK  196  A    between atoms: _478  and  _479
REMARK  197  A    between atoms: _478  and  _481
REMARK  198  A    between atoms: _481  and  _482
REMARK  199  A    between atoms: _487  and  _489
REMARK  200  A    between atoms: _489  and  _490
REMARK  201  A    between atoms: _489  and  _492
REMARK  202  A    between atoms: _492  and  _493
REMARK  203  A    between atoms: _496  and  _498
REMARK  204  A    between atoms: _498  and  _499
REMARK  205  A    between atoms: _498  and  _501
REMARK  206  A    between atoms: _501  and  _502
REMARK  207  A    between atoms: _505  and  _507
REMARK  208  A    between atoms: _507  and  _508
REMARK  209  A    between atoms: _507  and  _510
REMARK  210  A    between atoms: _510  and  _511
REMARK  211  A    between atoms: _516  and  _518
REMARK  212  A    between atoms: _518  and  _519
REMARK  213  A    between atoms: _518  and  _521
REMARK  214  A    between atoms: _521  and  _522
REMARK  215  A    between atoms: _527  and  _528
REMARK  216  A    between atoms: _530  and  _532
REMARK  217  A    between atoms: _532  and  _533
REMARK  218  A    between atoms: _532  and  _535
REMARK  219  A    between atoms: _537  and  _539
REMARK  220  A    between atoms: _539  and  _540
REMARK  221  A    between atoms: _539  and  _542
REMARK  222  A    between atoms: _542  and  _543
REMARK  223  A    between atoms: _549  and  _551
REMARK  224  A    between atoms: _551  and  _552
REMARK  225  A    between atoms: _551  and  _554
REMARK  226  A    between atoms: _554  and  _555
REMARK  227  A    between atoms: _555  and  _556
REMARK  228  A    between atoms: _561  and  _563
REMARK  229  A    between atoms: _563  and  _564
REMARK  230  A    between atoms: _563  and  _566
REMARK  231  A    between atoms: _566  and  _567
REMARK  232  A    between atoms: _570  and  _572
REMARK  233  A    between atoms: _572  and  _573
REMARK  234  A    between atoms: _572  and  _575
REMARK  235  A    between atoms: _575  and  _576
REMARK  236  A    between atoms: _582  and  _584
REMARK  237  A    between atoms: _584  and  _585
REMARK  238  A    between atoms: _584  and  _587
REMARK  239  A    between atoms: _587  and  _588
REMARK  240  A    between atoms: _588  and  _589
REMARK  241  A    between atoms: _591  and  _593
REMARK  242  A    between atoms: _593  and  _594
REMARK  243  A    between atoms: _593  and  _596
REMARK  244  A    between atoms: _596  and  _597
REMARK  245  A    between atoms: _600  and  _602
REMARK  246  A    between atoms: _602  and  _603
REMARK  247  A    between atoms: _602  and  _605
REMARK  248  A    between atoms: _605  and  _606
REMARK  249  A    between atoms: _606  and  _607
REMARK  250  A    between atoms: _610  and  _612
REMARK  251  A    between atoms: _612  and  _613
REMARK  252  A    between atoms: _612  and  _615
REMARK  253  A    between atoms: _615  and  _616
REMARK  254  A    between atoms: _623  and  _624
REMARK  255  A    between atoms: _629  and  _631
REMARK  256  A    between atoms: _631  and  _632
REMARK  257  A    between atoms: _631  and  _634
REMARK  258  A    between atoms: _634  and  _635
REMARK  259  A    between atoms: _638  and  _640
REMARK  260  A    between atoms: _640  and  _641
REMARK  261  A    between atoms: _640  and  _643
REMARK  262  A    between atoms: _643  and  _644
REMARK                            x       y       z     vdW  Elec       q    Type
REMARK                         _______ _______ _______ _____ _____    ______ ____
ROOT
ATOM      1  O   HOH     1      24.699 -57.156 -47.344  0.00  0.00    +0.000 OA
ENDROOT
TORSDOF 0
REMARK  Name = ../refined-set-2016/4p6w/4p6w_pocket.pdb
REMARK  262 active torsions:
REMARK  status: ('A' for Active; 'I' for Inactive)
REMARK    1  A    between atoms: _1  and  _3
REMARK    2  A    between atoms: _3  and  _4
REMARK    3  A    between atoms: _3  and  _6
REMARK    4  A    between atoms: _6  and  _7
REMARK    5  A    between atoms: _10  and  _12
REMARK    6  A    between atoms: _12  and  _13
REMARK    7  A    between atoms: _12  and  _15
REMARK    8  A    between atoms: _15  and  _16
REMARK    9  A    between atoms: _19  and  _21
REMARK   10  A    between atoms: _21  and  _22
REMARK   11  A    between atoms: _21  and  _24
REMARK   12  A    between atoms: _24  and  _25
REMARK   13  A    between atoms: _35  and  _37
REMARK   14  A    between atoms: _37  and  _38
REMARK   15  A    between atoms: _37  and  _40
REMARK   16  A    between atoms: _40  and  _41
REMARK   17  A    between atoms: _44  and  _46
REMARK   18  A    between atoms: _46  and  _47
REMARK   19  A    between atoms: _46  and  _49
REMARK   20  A    between atoms: _49  and  _50
REMARK   21  A    between atoms: _50  and  _51
REMARK   22  A    between atoms: _53  and  _55
REMARK   23  A    between atoms: _55  and  _56
REMARK   24  A    between atoms: _55  and  _58
REMARK   25  A    between atoms: _58  and  _59
REMARK   26  A    between atoms: _62  and  _64
REMARK   27  A    between atoms: _64  and  _65
REMARK   28  A    between atoms: _64  and  _67
REMARK   29  A    between atoms: _67  and  _68
REMARK   30  A    between atoms: _71  and  _73
REMARK   31  A    between atoms: _73  and  _74
REMARK   32  A    between atoms: _73  and  _76
REMARK   33  A    between atoms: _76  and  _77
REMARK   34  A    between atoms: _80  and  _82
REMARK   35  A    between atoms: _82  and  _83
REMARK   36  A    between atoms: _82  and  _85
REMARK   37  A    between atoms: _85  and  _86
REMARK   38  A    between atoms: _91  and  _93
REMARK   39  A    between atoms: _93  and  _94
REMARK   40  A    between atoms: _93  and  _96
REMARK   41  A    between atoms: _96  and  _97
REMARK   42  A    between atoms: _97  and  _98
REMARK   43  A    between atoms: _100  and  _102
REMARK   44  A    between atoms: _102  and  _103
REMARK   45  A    between atoms: _102  and  _105
REMARK   46  A    between atoms: _105  and  _106
REMARK   47  A    between atoms: _109  and  _111
REMARK   48  A    between atoms: _111  and  _112
REMARK   49  A    between atoms: _114  and  _116
REMARK   50  A    between atoms: _116  and  _117
REMARK   51  A    between atoms: _119  and  _121
REMARK   52  A    between atoms: _121  and  _122
REMARK   53  A    between atoms: _121  and  _124
REMARK   54  A    between atoms: _124  and  _125
REMARK   55  A    between atoms: _125  and  _126
REMARK   56  A    between atoms: _126  and  _127
REMARK   57  A    between atoms: _136  and  _138
REMARK   58  A    between atoms: _138  and  _139
REMARK   59  A    between atoms: _138  and  _141
REMARK   60  A    between atoms: _141  and  _142
REMARK   61  A    between atoms: _142  and  _143
REMARK   62  A    between atoms: _148  and  _150
REMARK   63  A    between atoms: _150  and  _151
REMARK   64  A    between atoms: _150  and  _153
REMARK   65  A    between atoms: _156  and  _158
REMARK   66  A    between atoms: _158  and  _159
REMARK   67  A    between atoms: _158  and  _161
REMARK   68  A    between atoms: _161  and  _162
REMARK   69  A    between atoms: _172  and  _174
REMARK   70  A    between atoms: _174  and  _175
REMARK   71  A    between atoms: _174  and  _177
REMARK   72  A    between atoms: _177  and  _178
REMARK   73  A    between atoms: _178  and  _179
REMARK   74  A    between atoms: _181  and  _183
REMARK   75  A    between atoms: _183  and  _184
REMARK   76  A    between atoms: _187  and  _189
REMARK   77  A    between atoms: _189  and  _190
REMARK   78  A    between atoms: _189  and  _192
REMARK   79  A    between atoms: _192  and  _193
REMARK   80  A    between atoms: _196  and  _198
REMARK   81  A    between atoms: _198  and  _199
REMARK   82  A    between atoms: _198  and  _201
REMARK   83  A    between atoms: _201  and  _202
REMARK   84  A    between atoms: _202  and  _203
REMARK   85  A    between atoms: _205  and  _207
REMARK   86  A    between atoms: _207  and  _208
REMARK   87  A    between atoms: _211  and  _213
REMARK   88  A    between atoms: _213  and  _214
REMARK   89  A    between atoms: _213  and  _216
REMARK   90  A    between atoms: _216  and  _217
REMARK   91  A    between atoms: _223  and  _225
REMARK   92  A    between atoms: _225  and  _226
REMARK   93  A    between atoms: _229  and  _231
REMARK   94  A    between atoms: _231  and  _232
REMARK   95  A    between atoms: _231  and  _234
REMARK   96  A    between atoms: _234  and  _235
REMARK   97  A    between atoms: _238  and  _240
REMARK   98  A    between atoms: _240  and  _241
REMARK   99  A    between atoms: _243  and  _245
REMARK  100  A    between atoms: _245  and  _246
REMARK  101  A    between atoms: _245  and  _248
REMARK  102  A    between atoms: _248  and  _249
REMARK  103  A    between atoms: _249  and  _250
REMARK  104  A    between atoms: _250  and  _251
REMARK  105  A    between atoms: _260  and  _262
REMARK  106  A    between atoms: _262  and  _263
REMARK  107  A    between atoms: _262  and  _265
REMARK  108  A    between atoms: _265  and  _266
REMARK  109  A    between atoms: _268  and  _270
REMARK  110  A    between atoms: _270  and  _271
REMARK  111  A    between atoms: _270  and  _273
REMARK  112  A    between atoms: _273  and  _274
REMARK  113  A    between atoms: _277  and  _279
REMARK  114  A    between atoms: _279  and  _280
REMARK  115  A    between atoms: _279  and  _282
REMARK  116  A    between atoms: _282  and  _283
REMARK  117  A    between atoms: _288  and  _289
REMARK  118  A    between atoms: _291  and  _293
REMARK  119  A    between atoms: _293  and  _294
REMARK  120  A    between atoms: _293  and  _296
REMARK  121  A    between atoms: _296  and  _297
REMARK  122  A    between atoms: _303  and  _305
REMARK  123  A    between atoms: _305  and  _306
REMARK  124  A    between atoms: _309  and  _311
REMARK  125  A    between atoms: _311  and  _312
REMARK  126  A    between atoms: _311  and  _314
REMARK  127  A    between atoms: _314  and  _315
REMARK  128  A    between atoms: _318  and  _320
REMARK  129  A    between atoms: _320  and  _321
REMARK  130  A    between atoms: _320  and  _323
REMARK  131  A    between atoms: _323  and  _324
REMARK  132  A    between atoms: _327  and  _329
REMARK  133  A    between atoms: _329  and  _330
REMARK  134  A    between atoms: _329  and  _332
REMARK  135  A    between atoms: _332  and  _333
REMARK  136  A    between atoms: _333  and  _334
REMARK  137  A    between atoms: _334  and  _335
REMARK  138  A    between atoms: _344  and  _346
REMARK  139  A    between atoms: _346  and  _347
REMARK  140  A    between atoms: _346  and  _349
REMARK  141  A    between atoms: _349  and  _350
REMARK  142  A    between atoms: _350  and  _351
REMARK  143  A    between atoms: _353  and  _355
REMARK  144  A    between atoms: _355  and  _356
REMARK  145  A    between atoms: _355  and  _358
REMARK  146  A    between atoms: _358  and  _359
REMARK  147  A    between atoms: _363  and  _364
REMARK  148  A    between atoms: _369  and  _371
REMARK  149  A    between atoms: _371  and  _372
REMARK  150  A    between atoms: _371  and  _374
REMARK  151  A    between atoms: _376  and  _378
REMARK  152  A    between atoms: _378  and  _379
REMARK  153  A    between atoms: _378  and  _381
REMARK  154  A    between atoms: _381  and  _382
REMARK  155  A    between atoms: _382  and  _383
REMARK  156  A    between atoms: _385  and  _387
REMARK  157  A    between atoms: _387  and  _388
REMARK  158  A    between atoms: _387  and  _390
REMARK  159  A    between atoms: _390  and  _391
REMARK  160  A    between atoms: _396  and  _397
REMARK  161  A    between atoms: _399  and  _401
REMARK  162  A    between atoms: _401  and  _402
REMARK  163  A    between atoms: _401  and  _404
REMARK  164  A    between atoms: _404  and  _405
REMARK  165  A    between atoms: _408  and  _410
REMARK  166  A    between atoms: _410  and  _411
REMARK  167  A    between atoms: _410  and  _413
REMARK  168  A    between atoms: _413  and  _414
REMARK  169  A    between atoms: _414  and  _415
REMARK  170  A    between atoms: _420  and  _422
REMARK  171  A    between atoms: _422  and  _423
REMARK  172  A    between atoms: _422  and  _425
REMARK  173  A    between atoms: _427  and  _429
REMARK  174  A    between atoms: _429  and  _430
REMARK  175  A    between atoms: _429  and  _432
REMARK  176  A    between atoms: _432  and  _433
REMARK  177  A    between atoms: _433  and  _434
REMARK  178  A    between atoms: _434  and  _435
REMARK  179  A    between atoms: _435  and  _436
REMARK  180  A    between atoms: _440  and  _442
REMARK  181  A    between atoms: _442  and  _443
REMARK  182  A    between atoms: _442  and  _445
REMARK  183  A    between atoms: _445  and  _446
REMARK  184  A    between atoms: _451  and  _453
REMARK  185  A    between atoms: _453  and  _454
REMARK  186  A    between atoms: _453  and  _456
REMARK  187  A    between atoms: _456  and  _457
REMARK  188  A    between atoms: _457  and  _458
REMARK  189  A    between atoms: _460  and  _462
REMARK  190  A    between atoms: _462  and  _463
REMARK  191  A    between atoms: _462  and  _465
REMARK  192  A    between atoms: _468  and  _470
REMARK  193  A    between atoms: _470  and  _471
REMARK  194  A    between atoms: _470  and  _473
REMARK  195  A    between atoms: _476  and  _478
REMARK  196  A    between atoms: _478  and  _479
REMARK  197  A    between atoms: _478  and  _481
REMARK  198  A    between atoms: _481  and  _482
REMARK  199  A    between atoms: _487  and  _489
REMARK  200  A    between atoms: _489  and  _490
REMARK  201  A    between atoms: _489  and  _492
REMARK  202  A    between atoms: _492  and  _493
REMARK  203  A    between atoms: _496  and  _498
REMARK  204  A    between atoms: _498  and  _499
REMARK  205  A    between atoms: _498  and  _501
REMARK  206  A    between atoms: _501  and  _502
REMARK  207  A    between atoms: _505  and  _507
REMARK  208  A    between atoms: _507  and  _508
REMARK  209  A    between atoms: _507  and  _510
REMARK  210  A    between atoms: _510  and  _511
REMARK  211  A    between atoms: _516  and  _518
REMARK  212  A    between atoms: _518  and  _519
REMARK  213  A    between atoms: _518  and  _521
REMARK  214  A    between atoms: _521  and  _522
REMARK  215  A    between atoms: _527  and  _528
REMARK  216  A    between atoms: _530  and  _532
REMARK  217  A    between atoms: _532  and  _533
REMARK  218  A    between atoms: _532  and  _535
REMARK  219  A    between atoms: _537  and  _539
REMARK  220  A    between atoms: _539  and  _540
REMARK  221  A    between atoms: _539  and  _542
REMARK  222  A    between atoms: _542  and  _543
REMARK  223  A    between atoms: _549  and  _551
REMARK  224  A    between atoms: _551  and  _552
REMARK  225  A    between atoms: _551  and  _554
REMARK  226  A    between atoms: _554  and  _555
REMARK  227  A    between atoms: _555  and  _556
REMARK  228  A    between atoms: _561  and  _563
REMARK  229  A    between atoms: _563  and  _564
REMARK  230  A    between atoms: _563  and  _566
REMARK  231  A    between atoms: _566  and  _567
REMARK  232  A    between atoms: _570  and  _572
REMARK  233  A    between atoms: _572  and  _573
REMARK  234  A    between atoms: _572  and  _575
REMARK  235  A    between atoms: _575  and  _576
REMARK  236  A    between atoms: _582  and  _584
REMARK  237  A    between atoms: _584  and  _585
REMARK  238  A    between atoms: _584  and  _587
REMARK  239  A    between atoms: _587  and  _588
REMARK  240  A    between atoms: _588  and  _589
REMARK  241  A    between atoms: _591  and  _593
REMARK  242  A    between atoms: _593  and  _594
REMARK  243  A    between atoms: _593  and  _596
REMARK  244  A    between atoms: _596  and  _597
REMARK  245  A    between atoms: _600  and  _602
REMARK  246  A    between atoms: _602  and  _603
REMARK  247  A    between atoms: _602  and  _605
REMARK  248  A    between atoms: _605  and  _606
REMARK  249  A    between atoms: _606  and  _607
REMARK  250  A    between atoms: _610  and  _612
REMARK  251  A    between atoms: _612  and  _613
REMARK  252  A    between atoms: _612  and  _615
REMARK  253  A    between atoms: _615  and  _616
REMARK  254  A    between atoms: _623  and  _624
REMARK  255  A    between atoms: _629  and  _631
REMARK  256  A    between atoms: _631  and  _632
REMARK  257  A    between atoms: _631  and  _634
REMARK  258  A    between atoms: _634  and  _635
REMARK  259  A    between atoms: _638  and  _640
REMARK  260  A    between atoms: _640  and  _641
REMARK  261  A    between atoms: _640  and  _643
REMARK  262  A    between atoms: _643  and  _644
REMARK                            x       y       z     vdW  Elec       q    Type
REMARK                         _______ _______ _______ _____ _____    ______ ____
ROOT
ATOM      1  O   HOH     1      19.688 -52.040 -27.858  0.00  0.00    +0.000 OA
ENDROOT
TORSDOF 0
