REMARK  Name = ../refined-set-2016/3cct/3cct_pocket.pdb
REMARK  246 active torsions:
REMARK  status: ('A' for Active; 'I' for Inactive)
REMARK    1  A    between atoms: _1  and  _3
REMARK    2  A    between atoms: _3  and  _4
REMARK    3  A    between atoms: _3  and  _6
REMARK    4  A    between atoms: _6  and  _7
REMARK    5  A    between atoms: _10  and  _12
REMARK    6  A    between atoms: _12  and  _13
REMARK    7  A    between atoms: _12  and  _15
REMARK    8  A    between atoms: _15  and  _16
REMARK    9  A    between atoms: _16  and  _17
REMARK   10  A    between atoms: _20  and  _22
REMARK   11  A    between atoms: _22  and  _23
REMARK   12  A    between atoms: _25  and  _27
REMARK   13  A    between atoms: _27  and  _28
REMARK   14  A    between atoms: _27  and  _30
REMARK   15  A    between atoms: _32  and  _34
REMARK   16  A    between atoms: _34  and  _35
REMARK   17  A    between atoms: _34  and  _37
REMARK   18  A    between atoms: _37  and  _38
REMARK   19  A    between atoms: _41  and  _43
REMARK   20  A    between atoms: _43  and  _44
REMARK   21  A    between atoms: _43  and  _46
REMARK   22  A    between atoms: _49  and  _51
REMARK   23  A    between atoms: _51  and  _52
REMARK   24  A    between atoms: _55  and  _57
REMARK   25  A    between atoms: _57  and  _58
REMARK   26  A    between atoms: _57  and  _60
REMARK   27  A    between atoms: _60  and  _61
REMARK   28  A    between atoms: _63  and  _65
REMARK   29  A    between atoms: _65  and  _66
REMARK   30  A    between atoms: _65  and  _68
REMARK   31  A    between atoms: _68  and  _69
REMARK   32  A    between atoms: _72  and  _74
REMARK   33  A    between atoms: _74  and  _75
REMARK   34  A    between atoms: _74  and  _77
REMARK   35  A    between atoms: _77  and  _78
REMARK   36  A    between atoms: _83  and  _85
REMARK   37  A    between atoms: _85  and  _86
REMARK   38  A    between atoms: _85  and  _88
REMARK   39  A    between atoms: _88  and  _89
REMARK   40  A    between atoms: _89  and  _90
REMARK   41  A    between atoms: _90  and  _91
REMARK   42  A    between atoms: _100  and  _102
REMARK   43  A    between atoms: _102  and  _103
REMARK   44  A    between atoms: _105  and  _107
REMARK   45  A    between atoms: _107  and  _108
REMARK   46  A    between atoms: _107  and  _110
REMARK   47  A    between atoms: _113  and  _115
REMARK   48  A    between atoms: _115  and  _116
REMARK   49  A    between atoms: _115  and  _118
REMARK   50  A    between atoms: _118  and  _119
REMARK   51  A    between atoms: _122  and  _124
REMARK   52  A    between atoms: _124  and  _125
REMARK   53  A    between atoms: _124  and  _127
REMARK   54  A    between atoms: _127  and  _128
REMARK   55  A    between atoms: _128  and  _129
REMARK   56  A    between atoms: _129  and  _130
REMARK   57  A    between atoms: _130  and  _131
REMARK   58  A    between atoms: _135  and  _137
REMARK   59  A    between atoms: _137  and  _138
REMARK   60  A    between atoms: _137  and  _140
REMARK   61  A    between atoms: _140  and  _141
REMARK   62  A    between atoms: _141  and  _142
REMARK   63  A    between atoms: _142  and  _143
REMARK   64  A    between atoms: _143  and  _144
REMARK   65  A    between atoms: _148  and  _150
REMARK   66  A    between atoms: _150  and  _151
REMARK   67  A    between atoms: _150  and  _153
REMARK   68  A    between atoms: _153  and  _154
REMARK   69  A    between atoms: _159  and  _161
REMARK   70  A    between atoms: _161  and  _162
REMARK   71  A    between atoms: _161  and  _164
REMARK   72  A    between atoms: _164  and  _165
REMARK   73  A    between atoms: _170  and  _172
REMARK   74  A    between atoms: _172  and  _173
REMARK   75  A    between atoms: _176  and  _178
REMARK   76  A    between atoms: _178  and  _179
REMARK   77  A    between atoms: _178  and  _181
REMARK   78  A    between atoms: _181  and  _182
REMARK   79  A    between atoms: _187  and  _189
REMARK   80  A    between atoms: _189  and  _190
REMARK   81  A    between atoms: _193  and  _195
REMARK   82  A    between atoms: _195  and  _196
REMARK   83  A    between atoms: _199  and  _201
REMARK   84  A    between atoms: _201  and  _202
REMARK   85  A    between atoms: _201  and  _204
REMARK   86  A    between atoms: _204  and  _205
REMARK   87  A    between atoms: _210  and  _212
REMARK   88  A    between atoms: _212  and  _213
REMARK   89  A    between atoms: _212  and  _215
REMARK   90  A    between atoms: _215  and  _216
REMARK   91  A    between atoms: _219  and  _221
REMARK   92  A    between atoms: _221  and  _222
REMARK   93  A    between atoms: _224  and  _226
REMARK   94  A    between atoms: _226  and  _227
REMARK   95  A    between atoms: _226  and  _229
REMARK   96  A    between atoms: _229  and  _230
REMARK   97  A    between atoms: _230  and  _231
REMARK   98  A    between atoms: _234  and  _236
REMARK   99  A    between atoms: _236  and  _237
REMARK  100  A    between atoms: _236  and  _239
REMARK  101  A    between atoms: _239  and  _240
REMARK  102  A    between atoms: _242  and  _244
REMARK  103  A    between atoms: _244  and  _245
REMARK  104  A    between atoms: _244  and  _247
REMARK  105  A    between atoms: _247  and  _248
REMARK  106  A    between atoms: _251  and  _253
REMARK  107  A    between atoms: _253  and  _254
REMARK  108  A    between atoms: _253  and  _256
REMARK  109  A    between atoms: _256  and  _257
REMARK  110  A    between atoms: _257  and  _258
REMARK  111  A    between atoms: _260  and  _262
REMARK  112  A    between atoms: _262  and  _263
REMARK  113  A    between atoms: _266  and  _268
REMARK  114  A    between atoms: _268  and  _269
REMARK  115  A    between atoms: _272  and  _274
REMARK  116  A    between atoms: _274  and  _275
REMARK  117  A    between atoms: _274  and  _277
REMARK  118  A    between atoms: _277  and  _278
REMARK  119  A    between atoms: _281  and  _283
REMARK  120  A    between atoms: _283  and  _284
REMARK  121  A    between atoms: _287  and  _289
REMARK  122  A    between atoms: _289  and  _290
REMARK  123  A    between atoms: _293  and  _295
REMARK  124  A    between atoms: _295  and  _296
REMARK  125  A    between atoms: _298  and  _300
REMARK  126  A    between atoms: _300  and  _301
REMARK  127  A    between atoms: _300  and  _303
REMARK  128  A    between atoms: _303  and  _304
REMARK  129  A    between atoms: _309  and  _311
REMARK  130  A    between atoms: _311  and  _312
REMARK  131  A    between atoms: _311  and  _314
REMARK  132  A    between atoms: _314  and  _315
REMARK  133  A    between atoms: _315  and  _316
REMARK  134  A    between atoms: _319  and  _321
REMARK  135  A    between atoms: _321  and  _322
REMARK  136  A    between atoms: _321  and  _324
REMARK  137  A    between atoms: _324  and  _325
REMARK  138  A    between atoms: _328  and  _330
REMARK  139  A    between atoms: _330  and  _331
REMARK  140  A    between atoms: _330  and  _333
REMARK  141  A    between atoms: _333  and  _334
REMARK  142  A    between atoms: _334  and  _335
REMARK  143  A    between atoms: _335  and  _336
REMARK  144  A    between atoms: _345  and  _347
REMARK  145  A    between atoms: _347  and  _348
REMARK  146  A    between atoms: _351  and  _352
REMARK  147  A    between atoms: _357  and  _359
REMARK  148  A    between atoms: _359  and  _360
REMARK  149  A    between atoms: _359  and  _362
REMARK  150  A    between atoms: _362  and  _363
REMARK  151  A    between atoms: _363  and  _364
REMARK  152  A    between atoms: _366  and  _368
REMARK  153  A    between atoms: _368  and  _369
REMARK  154  A    between atoms: _368  and  _371
REMARK  155  A    between atoms: _371  and  _372
REMARK  156  A    between atoms: _372  and  _373
REMARK  157  A    between atoms: _375  and  _377
REMARK  158  A    between atoms: _377  and  _378
REMARK  159  A    between atoms: _377  and  _380
REMARK  160  A    between atoms: _380  and  _381
REMARK  161  A    between atoms: _386  and  _388
REMARK  162  A    between atoms: _388  and  _389
REMARK  163  A    between atoms: _388  and  _391
REMARK  164  A    between atoms: _391  and  _392
REMARK  165  A    between atoms: _395  and  _397
REMARK  166  A    between atoms: _397  and  _398
REMARK  167  A    between atoms: _397  and  _400
REMARK  168  A    between atoms: _400  and  _401
REMARK  169  A    between atoms: _403  and  _405
REMARK  170  A    between atoms: _405  and  _406
REMARK  171  A    between atoms: _405  and  _408
REMARK  172  A    between atoms: _408  and  _409
REMARK  173  A    between atoms: _409  and  _410
REMARK  174  A    between atoms: _410  and  _411
REMARK  175  A    between atoms: _411  and  _412
REMARK  176  A    between atoms: _416  and  _418
REMARK  177  A    between atoms: _418  and  _419
REMARK  178  A    between atoms: _418  and  _421
REMARK  179  A    between atoms: _421  and  _422
REMARK  180  A    between atoms: _425  and  _427
REMARK  181  A    between atoms: _427  and  _428
REMARK  182  A    between atoms: _427  and  _430
REMARK  183  A    between atoms: _430  and  _431
REMARK  184  A    between atoms: _431  and  _432
REMARK  185  A    between atoms: _435  and  _437
REMARK  186  A    between atoms: _437  and  _438
REMARK  187  A    between atoms: _441  and  _443
REMARK  188  A    between atoms: _443  and  _444
REMARK  189  A    between atoms: _443  and  _446
REMARK  190  A    between atoms: _449  and  _451
REMARK  191  A    between atoms: _451  and  _452
REMARK  192  A    between atoms: _451  and  _454
REMARK  193  A    between atoms: _454  and  _455
REMARK  194  A    between atoms: _457  and  _459
REMARK  195  A    between atoms: _459  and  _460
REMARK  196  A    between atoms: _462  and  _464
REMARK  197  A    between atoms: _464  and  _465
REMARK  198  A    between atoms: _464  and  _467
REMARK  199  A    between atoms: _467  and  _468
REMARK  200  A    between atoms: _473  and  _475
REMARK  201  A    between atoms: _475  and  _476
REMARK  202  A    between atoms: _475  and  _478
REMARK  203  A    between atoms: _478  and  _479
REMARK  204  A    between atoms: _484  and  _485
REMARK  205  A    between atoms: _487  and  _489
REMARK  206  A    between atoms: _489  and  _490
REMARK  207  A    between atoms: _489  and  _492
REMARK  208  A    between atoms: _494  and  _496
REMARK  209  A    between atoms: _496  and  _497
REMARK  210  A    between atoms: _496  and  _499
REMARK  211  A    between atoms: _499  and  _500
REMARK  212  A    between atoms: _503  and  _505
REMARK  213  A    between atoms: _505  and  _506
REMARK  214  A    between atoms: _505  and  _508
REMARK  215  A    between atoms: _508  and  _509
REMARK  216  A    between atoms: _512  and  _514
REMARK  217  A    between atoms: _514  and  _515
REMARK  218  A    between atoms: _514  and  _517
REMARK  219  A    between atoms: _517  and  _518
REMARK  220  A    between atoms: _518  and  _519
REMARK  221  A    between atoms: _519  and  _520
REMARK  222  A    between atoms: _520  and  _521
REMARK  223  A    between atoms: _525  and  _527
REMARK  224  A    between atoms: _527  and  _528
REMARK  225  A    between atoms: _527  and  _530
REMARK  226  A    between atoms: _530  and  _531
REMARK  227  A    between atoms: _531  and  _532
REMARK  228  A    between atoms: _532  and  _533
REMARK  229  A    between atoms: _533  and  _534
REMARK  230  A    between atoms: _538  and  _540
REMARK  231  A    between atoms: _540  and  _541
REMARK  232  A    between atoms: _540  and  _543
REMARK  233  A    between atoms: _543  and  _544
REMARK  234  A    between atoms: _544  and  _545
REMARK  235  A    between atoms: _545  and  _546
REMARK  236  A    between atoms: _555  and  _557
REMARK  237  A    between atoms: _557  and  _558
REMARK  238  A    between atoms: _557  and  _560
REMARK  239  A    between atoms: _560  and  _561
REMARK  240  A    between atoms: _564  and  _566
REMARK  241  A    between atoms: _566  and  _567
REMARK  242  A    between atoms: _570  and  _572
REMARK  243  A    between atoms: _572  and  _573
REMARK  244  A    between atoms: _572  and  _575
REMARK  245  A    between atoms: _575  and  _576
REMARK  246  A    between atoms: _576  and  _577
REMARK                            x       y       z     vdW  Elec       q    Type
REMARK                         _______ _______ _______ _____ _____    ______ ____
ROOT
ATOM      1  CA  THR A   1      29.109 -19.461  -9.614  0.00  0.00    +0.160 C 
ENDROOT
BRANCH   1   2
ATOM      2  N   THR A   1      29.737 -20.756  -9.416  0.00  0.00    -0.237 NA
ATOM      3  H   THR A   1      29.999 -21.326 -10.245  0.00  0.00    +0.142 HD
ENDBRANCH   1   2
BRANCH   1   4
ATOM      4  CB  THR A   1      30.212 -18.384  -9.580  0.00  0.00    +0.134 C 
ATOM      5  CG2 THR A   1      31.289 -18.611 -10.676  0.00  0.00    +0.034 C 
BRANCH   4   6
ATOM      6  OG1 THR A   1      29.657 -17.109  -9.883  0.00  0.00    -0.383 OA
ATOM      7  HG1 THR A   1      28.962 -16.886  -9.214  0.00  0.00    +0.210 HD
ENDBRANCH   4   6
ENDBRANCH   1   4
BRANCH   1   8
ATOM      8  C   THR A   1      28.291 -19.380 -10.909  0.00  0.00    +0.227 C 
ATOM      9  O   THR A   1      28.506 -20.168 -11.817  0.00  0.00    -0.287 OA
ENDBRANCH   1   8
TORSDOF 4
REMARK  Name = ../refined-set-2016/3cct/3cct_pocket.pdb
REMARK  246 active torsions:
REMARK  status: ('A' for Active; 'I' for Inactive)
REMARK    1  A    between atoms: _1  and  _3
REMARK    2  A    between atoms: _3  and  _4
REMARK    3  A    between atoms: _3  and  _6
REMARK    4  A    between atoms: _6  and  _7
REMARK    5  A    between atoms: _10  and  _12
REMARK    6  A    between atoms: _12  and  _13
REMARK    7  A    between atoms: _12  and  _15
REMARK    8  A    between atoms: _15  and  _16
REMARK    9  A    between atoms: _16  and  _17
REMARK   10  A    between atoms: _20  and  _22
REMARK   11  A    between atoms: _22  and  _23
REMARK   12  A    between atoms: _25  and  _27
REMARK   13  A    between atoms: _27  and  _28
REMARK   14  A    between atoms: _27  and  _30
REMARK   15  A    between atoms: _32  and  _34
REMARK   16  A    between atoms: _34  and  _35
REMARK   17  A    between atoms: _34  and  _37
REMARK   18  A    between atoms: _37  and  _38
REMARK   19  A    between atoms: _41  and  _43
REMARK   20  A    between atoms: _43  and  _44
REMARK   21  A    between atoms: _43  and  _46
REMARK   22  A    between atoms: _49  and  _51
REMARK   23  A    between atoms: _51  and  _52
REMARK   24  A    between atoms: _55  and  _57
REMARK   25  A    between atoms: _57  and  _58
REMARK   26  A    between atoms: _57  and  _60
REMARK   27  A    between atoms: _60  and  _61
REMARK   28  A    between atoms: _63  and  _65
REMARK   29  A    between atoms: _65  and  _66
REMARK   30  A    between atoms: _65  and  _68
REMARK   31  A    between atoms: _68  and  _69
REMARK   32  A    between atoms: _72  and  _74
REMARK   33  A    between atoms: _74  and  _75
REMARK   34  A    between atoms: _74  and  _77
REMARK   35  A    between atoms: _77  and  _78
REMARK   36  A    between atoms: _83  and  _85
REMARK   37  A    between atoms: _85  and  _86
REMARK   38  A    between atoms: _85  and  _88
REMARK   39  A    between atoms: _88  and  _89
REMARK   40  A    between atoms: _89  and  _90
REMARK   41  A    between atoms: _90  and  _91
REMARK   42  A    between atoms: _100  and  _102
REMARK   43  A    between atoms: _102  and  _103
REMARK   44  A    between atoms: _105  and  _107
REMARK   45  A    between atoms: _107  and  _108
REMARK   46  A    between atoms: _107  and  _110
REMARK   47  A    between atoms: _113  and  _115
REMARK   48  A    between atoms: _115  and  _116
REMARK   49  A    between atoms: _115  and  _118
REMARK   50  A    between atoms: _118  and  _119
REMARK   51  A    between atoms: _122  and  _124
REMARK   52  A    between atoms: _124  and  _125
REMARK   53  A    between atoms: _124  and  _127
REMARK   54  A    between atoms: _127  and  _128
REMARK   55  A    between atoms: _128  and  _129
REMARK   56  A    between atoms: _129  and  _130
REMARK   57  A    between atoms: _130  and  _131
REMARK   58  A    between atoms: _135  and  _137
REMARK   59  A    between atoms: _137  and  _138
REMARK   60  A    between atoms: _137  and  _140
REMARK   61  A    between atoms: _140  and  _141
REMARK   62  A    between atoms: _141  and  _142
REMARK   63  A    between atoms: _142  and  _143
REMARK   64  A    between atoms: _143  and  _144
REMARK   65  A    between atoms: _148  and  _150
REMARK   66  A    between atoms: _150  and  _151
REMARK   67  A    between atoms: _150  and  _153
REMARK   68  A    between atoms: _153  and  _154
REMARK   69  A    between atoms: _159  and  _161
REMARK   70  A    between atoms: _161  and  _162
REMARK   71  A    between atoms: _161  and  _164
REMARK   72  A    between atoms: _164  and  _165
REMARK   73  A    between atoms: _170  and  _172
REMARK   74  A    between atoms: _172  and  _173
REMARK   75  A    between atoms: _176  and  _178
REMARK   76  A    between atoms: _178  and  _179
REMARK   77  A    between atoms: _178  and  _181
REMARK   78  A    between atoms: _181  and  _182
REMARK   79  A    between atoms: _187  and  _189
REMARK   80  A    between atoms: _189  and  _190
REMARK   81  A    between atoms: _193  and  _195
REMARK   82  A    between atoms: _195  and  _196
REMARK   83  A    between atoms: _199  and  _201
REMARK   84  A    between atoms: _201  and  _202
REMARK   85  A    between atoms: _201  and  _204
REMARK   86  A    between atoms: _204  and  _205
REMARK   87  A    between atoms: _210  and  _212
REMARK   88  A    between atoms: _212  and  _213
REMARK   89  A    between atoms: _212  and  _215
REMARK   90  A    between atoms: _215  and  _216
REMARK   91  A    between atoms: _219  and  _221
REMARK   92  A    between atoms: _221  and  _222
REMARK   93  A    between atoms: _224  and  _226
REMARK   94  A    between atoms: _226  and  _227
REMARK   95  A    between atoms: _226  and  _229
REMARK   96  A    between atoms: _229  and  _230
REMARK   97  A    between atoms: _230  and  _231
REMARK   98  A    between atoms: _234  and  _236
REMARK   99  A    between atoms: _236  and  _237
REMARK  100  A    between atoms: _236  and  _239
REMARK  101  A    between atoms: _239  and  _240
REMARK  102  A    between atoms: _242  and  _244
REMARK  103  A    between atoms: _244  and  _245
REMARK  104  A    between atoms: _244  and  _247
REMARK  105  A    between atoms: _247  and  _248
REMARK  106  A    between atoms: _251  and  _253
REMARK  107  A    between atoms: _253  and  _254
REMARK  108  A    between atoms: _253  and  _256
REMARK  109  A    between atoms: _256  and  _257
REMARK  110  A    between atoms: _257  and  _258
REMARK  111  A    between atoms: _260  and  _262
REMARK  112  A    between atoms: _262  and  _263
REMARK  113  A    between atoms: _266  and  _268
REMARK  114  A    between atoms: _268  and  _269
REMARK  115  A    between atoms: _272  and  _274
REMARK  116  A    between atoms: _274  and  _275
REMARK  117  A    between atoms: _274  and  _277
REMARK  118  A    between atoms: _277  and  _278
REMARK  119  A    between atoms: _281  and  _283
REMARK  120  A    between atoms: _283  and  _284
REMARK  121  A    between atoms: _287  and  _289
REMARK  122  A    between atoms: _289  and  _290
REMARK  123  A    between atoms: _293  and  _295
REMARK  124  A    between atoms: _295  and  _296
REMARK  125  A    between atoms: _298  and  _300
REMARK  126  A    between atoms: _300  and  _301
REMARK  127  A    between atoms: _300  and  _303
REMARK  128  A    between atoms: _303  and  _304
REMARK  129  A    between atoms: _309  and  _311
REMARK  130  A    between atoms: _311  and  _312
REMARK  131  A    between atoms: _311  and  _314
REMARK  132  A    between atoms: _314  and  _315
REMARK  133  A    between atoms: _315  and  _316
REMARK  134  A    between atoms: _319  and  _321
REMARK  135  A    between atoms: _321  and  _322
REMARK  136  A    between atoms: _321  and  _324
REMARK  137  A    between atoms: _324  and  _325
REMARK  138  A    between atoms: _328  and  _330
REMARK  139  A    between atoms: _330  and  _331
REMARK  140  A    between atoms: _330  and  _333
REMARK  141  A    between atoms: _333  and  _334
REMARK  142  A    between atoms: _334  and  _335
REMARK  143  A    between atoms: _335  and  _336
REMARK  144  A    between atoms: _345  and  _347
REMARK  145  A    between atoms: _347  and  _348
REMARK  146  A    between atoms: _351  and  _352
REMARK  147  A    between atoms: _357  and  _359
REMARK  148  A    between atoms: _359  and  _360
REMARK  149  A    between atoms: _359  and  _362
REMARK  150  A    between atoms: _362  and  _363
REMARK  151  A    between atoms: _363  and  _364
REMARK  152  A    between atoms: _366  and  _368
REMARK  153  A    between atoms: _368  and  _369
REMARK  154  A    between atoms: _368  and  _371
REMARK  155  A    between atoms: _371  and  _372
REMARK  156  A    between atoms: _372  and  _373
REMARK  157  A    between atoms: _375  and  _377
REMARK  158  A    between atoms: _377  and  _378
REMARK  159  A    between atoms: _377  and  _380
REMARK  160  A    between atoms: _380  and  _381
REMARK  161  A    between atoms: _386  and  _388
REMARK  162  A    between atoms: _388  and  _389
REMARK  163  A    between atoms: _388  and  _391
REMARK  164  A    between atoms: _391  and  _392
REMARK  165  A    between atoms: _395  and  _397
REMARK  166  A    between atoms: _397  and  _398
REMARK  167  A    between atoms: _397  and  _400
REMARK  168  A    between atoms: _400  and  _401
REMARK  169  A    between atoms: _403  and  _405
REMARK  170  A    between atoms: _405  and  _406
REMARK  171  A    between atoms: _405  and  _408
REMARK  172  A    between atoms: _408  and  _409
REMARK  173  A    between atoms: _409  and  _410
REMARK  174  A    between atoms: _410  and  _411
REMARK  175  A    between atoms: _411  and  _412
REMARK  176  A    between atoms: _416  and  _418
REMARK  177  A    between atoms: _418  and  _419
REMARK  178  A    between atoms: _418  and  _421
REMARK  179  A    between atoms: _421  and  _422
REMARK  180  A    between atoms: _425  and  _427
REMARK  181  A    between atoms: _427  and  _428
REMARK  182  A    between atoms: _427  and  _430
REMARK  183  A    between atoms: _430  and  _431
REMARK  184  A    between atoms: _431  and  _432
REMARK  185  A    between atoms: _435  and  _437
REMARK  186  A    between atoms: _437  and  _438
REMARK  187  A    between atoms: _441  and  _443
REMARK  188  A    between atoms: _443  and  _444
REMARK  189  A    between atoms: _443  and  _446
REMARK  190  A    between atoms: _449  and  _451
REMARK  191  A    between atoms: _451  and  _452
REMARK  192  A    between atoms: _451  and  _454
REMARK  193  A    between atoms: _454  and  _455
REMARK  194  A    between atoms: _457  and  _459
REMARK  195  A    between atoms: _459  and  _460
REMARK  196  A    between atoms: _462  and  _464
REMARK  197  A    between atoms: _464  and  _465
REMARK  198  A    between atoms: _464  and  _467
REMARK  199  A    between atoms: _467  and  _468
REMARK  200  A    between atoms: _473  and  _475
REMARK  201  A    between atoms: _475  and  _476
REMARK  202  A    between atoms: _475  and  _478
REMARK  203  A    between atoms: _478  and  _479
REMARK  204  A    between atoms: _484  and  _485
REMARK  205  A    between atoms: _487  and  _489
REMARK  206  A    between atoms: _489  and  _490
REMARK  207  A    between atoms: _489  and  _492
REMARK  208  A    between atoms: _494  and  _496
REMARK  209  A    between atoms: _496  and  _497
REMARK  210  A    between atoms: _496  and  _499
REMARK  211  A    between atoms: _499  and  _500
REMARK  212  A    between atoms: _503  and  _505
REMARK  213  A    between atoms: _505  and  _506
REMARK  214  A    between atoms: _505  and  _508
REMARK  215  A    between atoms: _508  and  _509
REMARK  216  A    between atoms: _512  and  _514
REMARK  217  A    between atoms: _514  and  _515
REMARK  218  A    between atoms: _514  and  _517
REMARK  219  A    between atoms: _517  and  _518
REMARK  220  A    between atoms: _518  and  _519
REMARK  221  A    between atoms: _519  and  _520
REMARK  222  A    between atoms: _520  and  _521
REMARK  223  A    between atoms: _525  and  _527
REMARK  224  A    between atoms: _527  and  _528
REMARK  225  A    between atoms: _527  and  _530
REMARK  226  A    between atoms: _530  and  _531
REMARK  227  A    between atoms: _531  and  _532
REMARK  228  A    between atoms: _532  and  _533
REMARK  229  A    between atoms: _533  and  _534
REMARK  230  A    between atoms: _538  and  _540
REMARK  231  A    between atoms: _540  and  _541
REMARK  232  A    between atoms: _540  and  _543
REMARK  233  A    between atoms: _543  and  _544
REMARK  234  A    between atoms: _544  and  _545
REMARK  235  A    between atoms: _545  and  _546
REMARK  236  A    between atoms: _555  and  _557
REMARK  237  A    between atoms: _557  and  _558
REMARK  238  A    between atoms: _557  and  _560
REMARK  239  A    between atoms: _560  and  _561
REMARK  240  A    between atoms: _564  and  _566
REMARK  241  A    between atoms: _566  and  _567
REMARK  242  A    between atoms: _570  and  _572
REMARK  243  A    between atoms: _572  and  _573
REMARK  244  A    between atoms: _572  and  _575
REMARK  245  A    between atoms: _575  and  _576
REMARK  246  A    between atoms: _576  and  _577
REMARK                            x       y       z     vdW  Elec       q    Type
REMARK                         _______ _______ _______ _____ _____    ______ ____
ROOT
ATOM      1  CA  SER A   7      38.920 -12.512 -13.270  0.00  0.00    +0.178 C 
ENDROOT
BRANCH   1   2
ATOM      2  C   SER A   7      39.823 -12.994 -12.140  0.00  0.00    +0.243 C 
ATOM      3  N   THR A   8      39.354 -13.991 -11.403  0.00  0.00    -0.295 N 
ATOM      4  H   THR A   8      38.422 -14.393 -11.630  0.00  0.00    +0.150 HD
ATOM      5  O   SER A   7      40.941 -12.507 -11.971  0.00  0.00    -0.273 OA
BRANCH   3   6
ATOM      6  CA  THR A   8      40.108 -14.540 -10.283  0.00  0.00    +0.176 C 
BRANCH   6   7
ATOM      7  C   THR A   8      41.356 -15.245 -10.782  0.00  0.00    +0.243 C 
ATOM      8  O   THR A   8      42.429 -15.109 -10.197  0.00  0.00    -0.273 OA
ATOM      9  N   ASN A   9      41.208 -15.996 -11.868  0.00  0.00    -0.297 N 
ATOM     10  H   ASN A   9      40.261 -16.106 -12.283  0.00  0.00    +0.150 HD
BRANCH   9  11
ATOM     11  CA  ASN A   9      42.338 -16.668 -12.491  0.00  0.00    +0.158 C 
BRANCH  11  12
ATOM     12  C   ASN A   9      43.462 -15.698 -12.911  0.00  0.00    +0.241 C 
ATOM     13  O   ASN A   9      44.635 -16.027 -12.786  0.00  0.00    -0.273 OA
ATOM     14  N   ARG A  10      43.104 -14.503 -13.378  0.00  0.00    -0.297 N 
ATOM     15  H   ARG A  10      42.093 -14.291 -13.500  0.00  0.00    +0.150 HD
BRANCH  14  16
ATOM     16  CA  ARG A  10      44.093 -13.476 -13.726  0.00  0.00    +0.149 C 
BRANCH  16  17
ATOM     17  C   ARG A  10      44.866 -12.998 -12.491  0.00  0.00    +0.241 C 
ATOM     18  N   GLY A  11      44.142 -12.791 -11.394  0.00  0.00    -0.296 N 
ATOM     19  H   GLY A  11      43.105 -12.837 -11.458  0.00  0.00    +0.150 HD
ATOM     20  O   ARG A  10      46.099 -12.824 -12.534  0.00  0.00    -0.273 OA
BRANCH  18  21
ATOM     21  CA  GLY A  11      44.754 -12.503 -10.112  0.00  0.00    +0.163 C 
BRANCH  21  22
ATOM     22  C   GLY A  11      45.707 -13.592  -9.645  0.00  0.00    +0.229 C 
ATOM     23  O   GLY A  11      46.756 -13.295  -9.080  0.00  0.00    -0.286 OA
ENDBRANCH  21  22
ENDBRANCH  18  21
ENDBRANCH  16  17
BRANCH  16  24
ATOM     24  CB  ARG A  10      43.426 -12.292 -14.421  0.00  0.00    +0.033 C 
BRANCH  24  25
ATOM     25  CG  ARG A  10      44.419 -11.279 -15.000  0.00  0.00    +0.045 C 
BRANCH  25  26
ATOM     26  CD  ARG A  10      43.767 -10.111 -15.740  0.00  0.00    +0.174 C 
BRANCH  26  27
ATOM     27  NE  ARG A  10      43.182  -9.141 -14.818  0.00  0.00    -0.265 N 
ATOM     28  HE  ARG A  10      43.073  -9.427 -13.824  0.00  0.00    +0.259 HD
ATOM     29  CZ  ARG A  10      42.778  -7.919 -15.154  0.00  0.00    +0.342 C 
ATOM     30  NH2 ARG A  10      42.248  -7.128 -14.222  0.00  0.00    -0.292 N 
ATOM     31 HH21 ARG A  10      42.154  -7.468 -13.244  0.00  0.00    +0.255 HD
ATOM     32 HH22 ARG A  10      41.929  -6.171 -14.473  0.00  0.00    +0.255 HD
ATOM     33  NH1 ARG A  10      42.894  -7.479 -16.408  0.00  0.00    -0.292 N 
ATOM     34 HH11 ARG A  10      42.573  -6.521 -16.655  0.00  0.00    +0.255 HD
ATOM     35 HH12 ARG A  10      43.305  -8.094 -17.139  0.00  0.00    +0.255 HD
ENDBRANCH  26  27
ENDBRANCH  25  26
ENDBRANCH  24  25
ENDBRANCH  16  24
ENDBRANCH  14  16
ENDBRANCH  11  12
BRANCH  11  36
ATOM     36  CB  ASN A   9      41.862 -17.487 -13.689  0.00  0.00    +0.114 C 
BRANCH  36  37
ATOM     37  CG  ASN A   9      42.885 -18.498 -14.139  0.00  0.00    +0.222 C 
ATOM     38  ND2 ASN A   9      42.975 -19.605 -13.429  0.00  0.00    -0.329 N 
ATOM     39 HD21 ASN A   9      42.356 -19.746 -12.605  0.00  0.00    +0.145 HD
ATOM     40 HD22 ASN A   9      43.665 -20.337 -13.693  0.00  0.00    +0.145 HD
ATOM     41  OD1 ASN A   9      43.590 -18.282 -15.118  0.00  0.00    -0.275 OA
ENDBRANCH  36  37
ENDBRANCH  11  36
ENDBRANCH   9  11
ENDBRANCH   6   7
BRANCH   6  42
ATOM     42  CB  THR A   8      39.225 -15.512  -9.478  0.00  0.00    +0.137 C 
ATOM     43  CG2 THR A   8      39.907 -15.955  -8.209  0.00  0.00    +0.034 C 
BRANCH  42  44
ATOM     44  OG1 THR A   8      38.053 -14.826  -9.031  0.00  0.00    -0.382 OA
ATOM     45  HG1 THR A   8      37.549 -14.491  -9.815  0.00  0.00    +0.210 HD
ENDBRANCH  42  44
ENDBRANCH   6  42
ENDBRANCH   3   6
ENDBRANCH   1   2
BRANCH   1  47
ATOM     46  C   ALA A   6      39.113 -14.534 -14.622  0.00  0.00    +0.241 C 
ATOM     47  N   SER A   7      38.341 -13.654 -13.981  0.00  0.00    -0.295 N 
ATOM     48  H   SER A   7      37.309 -13.782 -13.987  0.00  0.00    +0.150 HD
ATOM     49  O   ALA A   6      40.343 -14.442 -14.663  0.00  0.00    -0.273 OA
BRANCH  46  50
ATOM     50  CA  ALA A   6      38.402 -15.698 -15.302  0.00  0.00    +0.149 C 
ATOM     51  CB  ALA A   6      37.862 -15.262 -16.662  0.00  0.00    +0.031 C 
BRANCH  50  54
ATOM     52  C   VAL A   5      37.548 -16.766 -13.276  0.00  0.00    +0.241 C 
ATOM     53  O   VAL A   5      38.684 -16.983 -12.860  0.00  0.00    -0.273 OA
ATOM     54  N   ALA A   6      37.312 -16.196 -14.457  0.00  0.00    -0.297 N 
ATOM     55  H   ALA A   6      36.330 -16.102 -14.788  0.00  0.00    +0.150 HD
BRANCH  52  56
ATOM     56  CA  VAL A   5      36.333 -17.184 -12.434  0.00  0.00    +0.149 C 
BRANCH  56  59
ATOM     57  C   LEU A   4      35.395 -14.974 -11.886  0.00  0.00    +0.241 C 
ATOM     58  O   LEU A   4      36.427 -14.599 -11.340  0.00  0.00    -0.273 OA
ATOM     59  N   VAL A   5      35.254 -16.185 -12.429  0.00  0.00    -0.297 N 
ATOM     60  H   VAL A   5      34.344 -16.432 -12.867  0.00  0.00    +0.150 HD
BRANCH  57  61
ATOM     61  CA  LEU A   4      34.193 -14.041 -11.949  0.00  0.00    +0.149 C 
BRANCH  61  63
ATOM     62  C   CYS A   3      34.412 -13.419 -14.280  0.00  0.00    +0.242 C 
ATOM     63  N   LEU A   4      33.661 -13.908 -13.298  0.00  0.00    -0.297 N 
ATOM     64  H   LEU A   4      32.682 -14.199 -13.496  0.00  0.00    +0.150 HD
ATOM     65  O   CYS A   3      35.593 -13.135 -14.131  0.00  0.00    -0.273 OA
BRANCH  62  66
ATOM     66  CA  CYS A   3      33.769 -13.224 -15.636  0.00  0.00    +0.160 C 
BRANCH  66  69
ATOM     67  C   GLY A   2      31.285 -13.363 -15.408  0.00  0.00    +0.243 C 
ATOM     68  O   GLY A   2      31.167 -12.362 -14.712  0.00  0.00    -0.273 OA
ATOM     69  N   CYS A   3      32.452 -13.851 -15.823  0.00  0.00    -0.296 N 
ATOM     70  H   CYS A   3      32.430 -14.761 -16.327  0.00  0.00    +0.150 HD
BRANCH  67  71
ATOM     71  CA  GLY A   2      30.059 -14.159 -15.828  0.00  0.00    +0.176 C 
BRANCH  71  74
ATOM     72  C   GLU A   1      29.456 -14.726 -13.546  0.00  0.00    +0.238 C 
ATOM     73  O   GLU A   1      30.595 -15.132 -13.291  0.00  0.00    -0.274 OA
ATOM     74  N   GLY A   2      29.092 -14.293 -14.749  0.00  0.00    -0.296 N 
ATOM     75  H   GLY A   2      28.097 -14.045 -14.922  0.00  0.00    +0.150 HD
BRANCH  72  76
ATOM     76  CA  GLU A   1      28.380 -14.673 -12.465  0.00  0.00    +0.145 C 
BRANCH  76  77
ATOM     77  N   GLU A   1      28.000 -16.022 -12.073  0.00  0.00    -0.238 NA
ATOM     78  H   GLU A   1      28.513 -16.497 -11.303  0.00  0.00    +0.142 HD
ENDBRANCH  76  77
BRANCH  76  79
ATOM     79  CB  GLU A   1      28.877 -13.849 -11.272  0.00  0.00    +0.038 C 
BRANCH  79  80
ATOM     80  CG  GLU A   1      29.480 -12.508 -11.680  0.00  0.00    +0.116 C 
BRANCH  80  81
ATOM     81  CD  GLU A   1      29.514 -11.488 -10.553  0.00  0.00    +0.365 C 
ATOM     82  OE2 GLU A   1      29.621 -11.899  -9.372  0.00  0.00    -0.246 OA
ATOM     83  OE1 GLU A   1      29.432 -10.275 -10.860  0.00  0.00    -0.246 OA
ENDBRANCH  80  81
ENDBRANCH  79  80
ENDBRANCH  76  79
ENDBRANCH  72  76
ENDBRANCH  71  74
ENDBRANCH  67  71
ENDBRANCH  66  69
BRANCH  66  84
ATOM     84  CB  CYS A   3      33.753 -11.729 -15.976  0.00  0.00    +0.098 C 
ATOM     85  SG  CYS A   3      33.294 -11.434 -17.680  0.00  0.00    -0.080 S 
ENDBRANCH  66  84
ENDBRANCH  62  66
ENDBRANCH  61  63
BRANCH  61  86
ATOM     86  CB  LEU A   4      33.103 -14.513 -10.979  0.00  0.00    +0.029 C 
BRANCH  86  87
ATOM     87  CG  LEU A   4      33.570 -14.751  -9.540  0.00  0.00    +0.002 C 
ATOM     88  CD2 LEU A   4      32.412 -15.224  -8.658  0.00  0.00    +0.000 C 
ATOM     89  CD1 LEU A   4      34.226 -13.484  -8.956  0.00  0.00    +0.000 C 
ENDBRANCH  86  87
ENDBRANCH  61  86
ENDBRANCH  57  61
ENDBRANCH  56  59
BRANCH  56  90
ATOM     90  CB  VAL A   5      35.845 -18.584 -12.916  0.00  0.00    +0.027 C 
ATOM     91  CG2 VAL A   5      34.899 -19.211 -11.902  0.00  0.00    +0.002 C 
ATOM     92  CG1 VAL A   5      37.012 -19.522 -13.167  0.00  0.00    +0.002 C 
ENDBRANCH  56  90
ENDBRANCH  52  56
ENDBRANCH  50  54
ENDBRANCH  46  50
ENDBRANCH   1  47
BRANCH   1  93
ATOM     93  CB  SER A   7      37.838 -11.592 -12.714  0.00  0.00    +0.166 C 
BRANCH  93  94
ATOM     94  OG  SER A   7      38.416 -10.428 -12.154  0.00  0.00    -0.380 OA
ATOM     95  H   SER A   7      37.700  -9.844 -11.799  0.00  0.00    +0.211 HD
ENDBRANCH  93  94
ENDBRANCH   1  93
TORSDOF 39
REMARK  Name = ../refined-set-2016/3cct/3cct_pocket.pdb
REMARK  246 active torsions:
REMARK  status: ('A' for Active; 'I' for Inactive)
REMARK    1  A    between atoms: _1  and  _3
REMARK    2  A    between atoms: _3  and  _4
REMARK    3  A    between atoms: _3  and  _6
REMARK    4  A    between atoms: _6  and  _7
REMARK    5  A    between atoms: _10  and  _12
REMARK    6  A    between atoms: _12  and  _13
REMARK    7  A    between atoms: _12  and  _15
REMARK    8  A    between atoms: _15  and  _16
REMARK    9  A    between atoms: _16  and  _17
REMARK   10  A    between atoms: _20  and  _22
REMARK   11  A    between atoms: _22  and  _23
REMARK   12  A    between atoms: _25  and  _27
REMARK   13  A    between atoms: _27  and  _28
REMARK   14  A    between atoms: _27  and  _30
REMARK   15  A    between atoms: _32  and  _34
REMARK   16  A    between atoms: _34  and  _35
REMARK   17  A    between atoms: _34  and  _37
REMARK   18  A    between atoms: _37  and  _38
REMARK   19  A    between atoms: _41  and  _43
REMARK   20  A    between atoms: _43  and  _44
REMARK   21  A    between atoms: _43  and  _46
REMARK   22  A    between atoms: _49  and  _51
REMARK   23  A    between atoms: _51  and  _52
REMARK   24  A    between atoms: _55  and  _57
REMARK   25  A    between atoms: _57  and  _58
REMARK   26  A    between atoms: _57  and  _60
REMARK   27  A    between atoms: _60  and  _61
REMARK   28  A    between atoms: _63  and  _65
REMARK   29  A    between atoms: _65  and  _66
REMARK   30  A    between atoms: _65  and  _68
REMARK   31  A    between atoms: _68  and  _69
REMARK   32  A    between atoms: _72  and  _74
REMARK   33  A    between atoms: _74  and  _75
REMARK   34  A    between atoms: _74  and  _77
REMARK   35  A    between atoms: _77  and  _78
REMARK   36  A    between atoms: _83  and  _85
REMARK   37  A    between atoms: _85  and  _86
REMARK   38  A    between atoms: _85  and  _88
REMARK   39  A    between atoms: _88  and  _89
REMARK   40  A    between atoms: _89  and  _90
REMARK   41  A    between atoms: _90  and  _91
REMARK   42  A    between atoms: _100  and  _102
REMARK   43  A    between atoms: _102  and  _103
REMARK   44  A    between atoms: _105  and  _107
REMARK   45  A    between atoms: _107  and  _108
REMARK   46  A    between atoms: _107  and  _110
REMARK   47  A    between atoms: _113  and  _115
REMARK   48  A    between atoms: _115  and  _116
REMARK   49  A    between atoms: _115  and  _118
REMARK   50  A    between atoms: _118  and  _119
REMARK   51  A    between atoms: _122  and  _124
REMARK   52  A    between atoms: _124  and  _125
REMARK   53  A    between atoms: _124  and  _127
REMARK   54  A    between atoms: _127  and  _128
REMARK   55  A    between atoms: _128  and  _129
REMARK   56  A    between atoms: _129  and  _130
REMARK   57  A    between atoms: _130  and  _131
REMARK   58  A    between atoms: _135  and  _137
REMARK   59  A    between atoms: _137  and  _138
REMARK   60  A    between atoms: _137  and  _140
REMARK   61  A    between atoms: _140  and  _141
REMARK   62  A    between atoms: _141  and  _142
REMARK   63  A    between atoms: _142  and  _143
REMARK   64  A    between atoms: _143  and  _144
REMARK   65  A    between atoms: _148  and  _150
REMARK   66  A    between atoms: _150  and  _151
REMARK   67  A    between atoms: _150  and  _153
REMARK   68  A    between atoms: _153  and  _154
REMARK   69  A    between atoms: _159  and  _161
REMARK   70  A    between atoms: _161  and  _162
REMARK   71  A    between atoms: _161  and  _164
REMARK   72  A    between atoms: _164  and  _165
REMARK   73  A    between atoms: _170  and  _172
REMARK   74  A    between atoms: _172  and  _173
REMARK   75  A    between atoms: _176  and  _178
REMARK   76  A    between atoms: _178  and  _179
REMARK   77  A    between atoms: _178  and  _181
REMARK   78  A    between atoms: _181  and  _182
REMARK   79  A    between atoms: _187  and  _189
REMARK   80  A    between atoms: _189  and  _190
REMARK   81  A    between atoms: _193  and  _195
REMARK   82  A    between atoms: _195  and  _196
REMARK   83  A    between atoms: _199  and  _201
REMARK   84  A    between atoms: _201  and  _202
REMARK   85  A    between atoms: _201  and  _204
REMARK   86  A    between atoms: _204  and  _205
REMARK   87  A    between atoms: _210  and  _212
REMARK   88  A    between atoms: _212  and  _213
REMARK   89  A    between atoms: _212  and  _215
REMARK   90  A    between atoms: _215  and  _216
REMARK   91  A    between atoms: _219  and  _221
REMARK   92  A    between atoms: _221  and  _222
REMARK   93  A    between atoms: _224  and  _226
REMARK   94  A    between atoms: _226  and  _227
REMARK   95  A    between atoms: _226  and  _229
REMARK   96  A    between atoms: _229  and  _230
REMARK   97  A    between atoms: _230  and  _231
REMARK   98  A    between atoms: _234  and  _236
REMARK   99  A    between atoms: _236  and  _237
REMARK  100  A    between atoms: _236  and  _239
REMARK  101  A    between atoms: _239  and  _240
REMARK  102  A    between atoms: _242  and  _244
REMARK  103  A    between atoms: _244  and  _245
REMARK  104  A    between atoms: _244  and  _247
REMARK  105  A    between atoms: _247  and  _248
REMARK  106  A    between atoms: _251  and  _253
REMARK  107  A    between atoms: _253  and  _254
REMARK  108  A    between atoms: _253  and  _256
REMARK  109  A    between atoms: _256  and  _257
REMARK  110  A    between atoms: _257  and  _258
REMARK  111  A    between atoms: _260  and  _262
REMARK  112  A    between atoms: _262  and  _263
REMARK  113  A    between atoms: _266  and  _268
REMARK  114  A    between atoms: _268  and  _269
REMARK  115  A    between atoms: _272  and  _274
REMARK  116  A    between atoms: _274  and  _275
REMARK  117  A    between atoms: _274  and  _277
REMARK  118  A    between atoms: _277  and  _278
REMARK  119  A    between atoms: _281  and  _283
REMARK  120  A    between atoms: _283  and  _284
REMARK  121  A    between atoms: _287  and  _289
REMARK  122  A    between atoms: _289  and  _290
REMARK  123  A    between atoms: _293  and  _295
REMARK  124  A    between atoms: _295  and  _296
REMARK  125  A    between atoms: _298  and  _300
REMARK  126  A    between atoms: _300  and  _301
REMARK  127  A    between atoms: _300  and  _303
REMARK  128  A    between atoms: _303  and  _304
REMARK  129  A    between atoms: _309  and  _311
REMARK  130  A    between atoms: _311  and  _312
REMARK  131  A    between atoms: _311  and  _314
REMARK  132  A    between atoms: _314  and  _315
REMARK  133  A    between atoms: _315  and  _316
REMARK  134  A    between atoms: _319  and  _321
REMARK  135  A    between atoms: _321  and  _322
REMARK  136  A    between atoms: _321  and  _324
REMARK  137  A    between atoms: _324  and  _325
REMARK  138  A    between atoms: _328  and  _330
REMARK  139  A    between atoms: _330  and  _331
REMARK  140  A    between atoms: _330  and  _333
REMARK  141  A    between atoms: _333  and  _334
REMARK  142  A    between atoms: _334  and  _335
REMARK  143  A    between atoms: _335  and  _336
REMARK  144  A    between atoms: _345  and  _347
REMARK  145  A    between atoms: _347  and  _348
REMARK  146  A    between atoms: _351  and  _352
REMARK  147  A    between atoms: _357  and  _359
REMARK  148  A    between atoms: _359  and  _360
REMARK  149  A    between atoms: _359  and  _362
REMARK  150  A    between atoms: _362  and  _363
REMARK  151  A    between atoms: _363  and  _364
REMARK  152  A    between atoms: _366  and  _368
REMARK  153  A    between atoms: _368  and  _369
REMARK  154  A    between atoms: _368  and  _371
REMARK  155  A    between atoms: _371  and  _372
REMARK  156  A    between atoms: _372  and  _373
REMARK  157  A    between atoms: _375  and  _377
REMARK  158  A    between atoms: _377  and  _378
REMARK  159  A    between atoms: _377  and  _380
REMARK  160  A    between atoms: _380  and  _381
REMARK  161  A    between atoms: _386  and  _388
REMARK  162  A    between atoms: _388  and  _389
REMARK  163  A    between atoms: _388  and  _391
REMARK  164  A    between atoms: _391  and  _392
REMARK  165  A    between atoms: _395  and  _397
REMARK  166  A    between atoms: _397  and  _398
REMARK  167  A    between atoms: _397  and  _400
REMARK  168  A    between atoms: _400  and  _401
REMARK  169  A    between atoms: _403  and  _405
REMARK  170  A    between atoms: _405  and  _406
REMARK  171  A    between atoms: _405  and  _408
REMARK  172  A    between atoms: _408  and  _409
REMARK  173  A    between atoms: _409  and  _410
REMARK  174  A    between atoms: _410  and  _411
REMARK  175  A    between atoms: _411  and  _412
REMARK  176  A    between atoms: _416  and  _418
REMARK  177  A    between atoms: _418  and  _419
REMARK  178  A    between atoms: _418  and  _421
REMARK  179  A    between atoms: _421  and  _422
REMARK  180  A    between atoms: _425  and  _427
REMARK  181  A    between atoms: _427  and  _428
REMARK  182  A    between atoms: _427  and  _430
REMARK  183  A    between atoms: _430  and  _431
REMARK  184  A    between atoms: _431  and  _432
REMARK  185  A    between atoms: _435  and  _437
REMARK  186  A    between atoms: _437  and  _438
REMARK  187  A    between atoms: _441  and  _443
REMARK  188  A    between atoms: _443  and  _444
REMARK  189  A    between atoms: _443  and  _446
REMARK  190  A    between atoms: _449  and  _451
REMARK  191  A    between atoms: _451  and  _452
REMARK  192  A    between atoms: _451  and  _454
REMARK  193  A    between atoms: _454  and  _455
REMARK  194  A    between atoms: _457  and  _459
REMARK  195  A    between atoms: _459  and  _460
REMARK  196  A    between atoms: _462  and  _464
REMARK  197  A    between atoms: _464  and  _465
REMARK  198  A    between atoms: _464  and  _467
REMARK  199  A    between atoms: _467  and  _468
REMARK  200  A    between atoms: _473  and  _475
REMARK  201  A    between atoms: _475  and  _476
REMARK  202  A    between atoms: _475  and  _478
REMARK  203  A    between atoms: _478  and  _479
REMARK  204  A    between atoms: _484  and  _485
REMARK  205  A    between atoms: _487  and  _489
REMARK  206  A    between atoms: _489  and  _490
REMARK  207  A    between atoms: _489  and  _492
REMARK  208  A    between atoms: _494  and  _496
REMARK  209  A    between atoms: _496  and  _497
REMARK  210  A    between atoms: _496  and  _499
REMARK  211  A    between atoms: _499  and  _500
REMARK  212  A    between atoms: _503  and  _505
REMARK  213  A    between atoms: _505  and  _506
REMARK  214  A    between atoms: _505  and  _508
REMARK  215  A    between atoms: _508  and  _509
REMARK  216  A    between atoms: _512  and  _514
REMARK  217  A    between atoms: _514  and  _515
REMARK  218  A    between atoms: _514  and  _517
REMARK  219  A    between atoms: _517  and  _518
REMARK  220  A    between atoms: _518  and  _519
REMARK  221  A    between atoms: _519  and  _520
REMARK  222  A    between atoms: _520  and  _521
REMARK  223  A    between atoms: _525  and  _527
REMARK  224  A    between atoms: _527  and  _528
REMARK  225  A    between atoms: _527  and  _530
REMARK  226  A    between atoms: _530  and  _531
REMARK  227  A    between atoms: _531  and  _532
REMARK  228  A    between atoms: _532  and  _533
REMARK  229  A    between atoms: _533  and  _534
REMARK  230  A    between atoms: _538  and  _540
REMARK  231  A    between atoms: _540  and  _541
REMARK  232  A    between atoms: _540  and  _543
REMARK  233  A    between atoms: _543  and  _544
REMARK  234  A    between atoms: _544  and  _545
REMARK  235  A    between atoms: _545  and  _546
REMARK  236  A    between atoms: _555  and  _557
REMARK  237  A    between atoms: _557  and  _558
REMARK  238  A    between atoms: _557  and  _560
REMARK  239  A    between atoms: _560  and  _561
REMARK  240  A    between atoms: _564  and  _566
REMARK  241  A    between atoms: _566  and  _567
REMARK  242  A    between atoms: _570  and  _572
REMARK  243  A    between atoms: _572  and  _573
REMARK  244  A    between atoms: _572  and  _575
REMARK  245  A    between atoms: _575  and  _576
REMARK  246  A    between atoms: _576  and  _577
REMARK                            x       y       z     vdW  Elec       q    Type
REMARK                         _______ _______ _______ _____ _____    ______ ____
ROOT
ATOM      1  CA  LEU A   2      46.962  -6.381 -14.669  0.00  0.00    +0.149 C 
ENDROOT
BRANCH   1   3
ATOM      2  C   VAL A   1      47.882  -8.104 -16.152  0.00  0.00    +0.238 C 
ATOM      3  N   LEU A   2      48.080  -7.123 -15.267  0.00  0.00    -0.297 N 
ATOM      4  H   LEU A   2      49.053  -6.878 -14.994  0.00  0.00    +0.150 HD
ATOM      5  O   VAL A   1      46.789  -8.349 -16.657  0.00  0.00    -0.274 OA
BRANCH   2   6
ATOM      6  CA  VAL A   1      49.094  -8.939 -16.532  0.00  0.00    +0.145 C 
BRANCH   6   7
ATOM      7  CB  VAL A   1      49.447  -9.863 -15.357  0.00  0.00    +0.025 C 
ATOM      8  CG2 VAL A   1      48.239 -10.738 -14.979  0.00  0.00    +0.002 C 
ATOM      9  CG1 VAL A   1      50.665 -10.723 -15.703  0.00  0.00    +0.002 C 
ENDBRANCH   6   7
BRANCH   6  10
ATOM     10  N   VAL A   1      50.234  -8.114 -16.918  0.00  0.00    -0.238 NA
ATOM     11  H   VAL A   1      51.008  -7.982 -16.236  0.00  0.00    +0.142 HD
ENDBRANCH   6  10
ENDBRANCH   2   6
ENDBRANCH   1   3
BRANCH   1  12
ATOM     12  C   LEU A   2      46.572  -5.107 -15.430  0.00  0.00    +0.241 C 
ATOM     13  O   LEU A   2      45.517  -4.521 -15.160  0.00  0.00    -0.273 OA
ATOM     14  N   LYS A   3      47.404  -4.680 -16.381  0.00  0.00    -0.298 N 
ATOM     15  H   LYS A   3      48.317  -5.160 -16.511  0.00  0.00    +0.150 HD
BRANCH  14  16
ATOM     16  CA  LYS A   3      47.058  -3.543 -17.251  0.00  0.00    +0.137 C 
BRANCH  16  17
ATOM     17  C   LYS A   3      46.901  -2.223 -16.484  0.00  0.00    +0.227 C 
ATOM     18  O   LYS A   3      46.068  -1.393 -16.830  0.00  0.00    -0.286 OA
ENDBRANCH  16  17
BRANCH  16  19
ATOM     19  CB  LYS A   3      45.771  -3.830 -18.052  0.00  0.00    +0.028 C 
BRANCH  19  20
ATOM     20  CG  LYS A   3      45.722  -5.198 -18.768  0.00  0.00    -0.000 C 
BRANCH  20  21
ATOM     21  CD  LYS A   3      46.871  -5.356 -19.780  0.00  0.00    -0.024 C 
BRANCH  21  22
ATOM     22  CE  LYS A   3      46.562  -6.392 -20.873  0.00  0.00    -0.086 C 
BRANCH  22  23
ATOM     23  NZ  LYS A   3      46.786  -7.786 -20.412  0.00  0.00    +0.380 N 
ATOM     24  HZ1 LYS A   3      46.170  -7.984 -19.598  0.00  0.00    -0.089 HD
ATOM     25  HZ2 LYS A   3      47.781  -7.901 -20.131  0.00  0.00    -0.089 HD
ATOM     26  HZ3 LYS A   3      46.564  -8.445 -21.185  0.00  0.00    -0.089 HD
ENDBRANCH  22  23
ENDBRANCH  21  22
ENDBRANCH  20  21
ENDBRANCH  19  20
ENDBRANCH  16  19
ENDBRANCH  14  16
ENDBRANCH   1  12
BRANCH   1  27
ATOM     27  CB  LEU A   2      47.256  -6.058 -13.190  0.00  0.00    +0.029 C 
BRANCH  27  28
ATOM     28  CG  LEU A   2      47.363  -7.257 -12.236  0.00  0.00    +0.002 C 
ATOM     29  CD2 LEU A   2      47.605  -6.787 -10.809  0.00  0.00    +0.000 C 
ATOM     30  CD1 LEU A   2      46.124  -8.148 -12.291  0.00  0.00    +0.000 C 
ENDBRANCH  27  28
ENDBRANCH   1  27
TORSDOF 14
REMARK  Name = ../refined-set-2016/3cct/3cct_pocket.pdb
REMARK  246 active torsions:
REMARK  status: ('A' for Active; 'I' for Inactive)
REMARK    1  A    between atoms: _1  and  _3
REMARK    2  A    between atoms: _3  and  _4
REMARK    3  A    between atoms: _3  and  _6
REMARK    4  A    between atoms: _6  and  _7
REMARK    5  A    between atoms: _10  and  _12
REMARK    6  A    between atoms: _12  and  _13
REMARK    7  A    between atoms: _12  and  _15
REMARK    8  A    between atoms: _15  and  _16
REMARK    9  A    between atoms: _16  and  _17
REMARK   10  A    between atoms: _20  and  _22
REMARK   11  A    between atoms: _22  and  _23
REMARK   12  A    between atoms: _25  and  _27
REMARK   13  A    between atoms: _27  and  _28
REMARK   14  A    between atoms: _27  and  _30
REMARK   15  A    between atoms: _32  and  _34
REMARK   16  A    between atoms: _34  and  _35
REMARK   17  A    between atoms: _34  and  _37
REMARK   18  A    between atoms: _37  and  _38
REMARK   19  A    between atoms: _41  and  _43
REMARK   20  A    between atoms: _43  and  _44
REMARK   21  A    between atoms: _43  and  _46
REMARK   22  A    between atoms: _49  and  _51
REMARK   23  A    between atoms: _51  and  _52
REMARK   24  A    between atoms: _55  and  _57
REMARK   25  A    between atoms: _57  and  _58
REMARK   26  A    between atoms: _57  and  _60
REMARK   27  A    between atoms: _60  and  _61
REMARK   28  A    between atoms: _63  and  _65
REMARK   29  A    between atoms: _65  and  _66
REMARK   30  A    between atoms: _65  and  _68
REMARK   31  A    between atoms: _68  and  _69
REMARK   32  A    between atoms: _72  and  _74
REMARK   33  A    between atoms: _74  and  _75
REMARK   34  A    between atoms: _74  and  _77
REMARK   35  A    between atoms: _77  and  _78
REMARK   36  A    between atoms: _83  and  _85
REMARK   37  A    between atoms: _85  and  _86
REMARK   38  A    between atoms: _85  and  _88
REMARK   39  A    between atoms: _88  and  _89
REMARK   40  A    between atoms: _89  and  _90
REMARK   41  A    between atoms: _90  and  _91
REMARK   42  A    between atoms: _100  and  _102
REMARK   43  A    between atoms: _102  and  _103
REMARK   44  A    between atoms: _105  and  _107
REMARK   45  A    between atoms: _107  and  _108
REMARK   46  A    between atoms: _107  and  _110
REMARK   47  A    between atoms: _113  and  _115
REMARK   48  A    between atoms: _115  and  _116
REMARK   49  A    between atoms: _115  and  _118
REMARK   50  A    between atoms: _118  and  _119
REMARK   51  A    between atoms: _122  and  _124
REMARK   52  A    between atoms: _124  and  _125
REMARK   53  A    between atoms: _124  and  _127
REMARK   54  A    between atoms: _127  and  _128
REMARK   55  A    between atoms: _128  and  _129
REMARK   56  A    between atoms: _129  and  _130
REMARK   57  A    between atoms: _130  and  _131
REMARK   58  A    between atoms: _135  and  _137
REMARK   59  A    between atoms: _137  and  _138
REMARK   60  A    between atoms: _137  and  _140
REMARK   61  A    between atoms: _140  and  _141
REMARK   62  A    between atoms: _141  and  _142
REMARK   63  A    between atoms: _142  and  _143
REMARK   64  A    between atoms: _143  and  _144
REMARK   65  A    between atoms: _148  and  _150
REMARK   66  A    between atoms: _150  and  _151
REMARK   67  A    between atoms: _150  and  _153
REMARK   68  A    between atoms: _153  and  _154
REMARK   69  A    between atoms: _159  and  _161
REMARK   70  A    between atoms: _161  and  _162
REMARK   71  A    between atoms: _161  and  _164
REMARK   72  A    between atoms: _164  and  _165
REMARK   73  A    between atoms: _170  and  _172
REMARK   74  A    between atoms: _172  and  _173
REMARK   75  A    between atoms: _176  and  _178
REMARK   76  A    between atoms: _178  and  _179
REMARK   77  A    between atoms: _178  and  _181
REMARK   78  A    between atoms: _181  and  _182
REMARK   79  A    between atoms: _187  and  _189
REMARK   80  A    between atoms: _189  and  _190
REMARK   81  A    between atoms: _193  and  _195
REMARK   82  A    between atoms: _195  and  _196
REMARK   83  A    between atoms: _199  and  _201
REMARK   84  A    between atoms: _201  and  _202
REMARK   85  A    between atoms: _201  and  _204
REMARK   86  A    between atoms: _204  and  _205
REMARK   87  A    between atoms: _210  and  _212
REMARK   88  A    between atoms: _212  and  _213
REMARK   89  A    between atoms: _212  and  _215
REMARK   90  A    between atoms: _215  and  _216
REMARK   91  A    between atoms: _219  and  _221
REMARK   92  A    between atoms: _221  and  _222
REMARK   93  A    between atoms: _224  and  _226
REMARK   94  A    between atoms: _226  and  _227
REMARK   95  A    between atoms: _226  and  _229
REMARK   96  A    between atoms: _229  and  _230
REMARK   97  A    between atoms: _230  and  _231
REMARK   98  A    between atoms: _234  and  _236
REMARK   99  A    between atoms: _236  and  _237
REMARK  100  A    between atoms: _236  and  _239
REMARK  101  A    between atoms: _239  and  _240
REMARK  102  A    between atoms: _242  and  _244
REMARK  103  A    between atoms: _244  and  _245
REMARK  104  A    between atoms: _244  and  _247
REMARK  105  A    between atoms: _247  and  _248
REMARK  106  A    between atoms: _251  and  _253
REMARK  107  A    between atoms: _253  and  _254
REMARK  108  A    between atoms: _253  and  _256
REMARK  109  A    between atoms: _256  and  _257
REMARK  110  A    between atoms: _257  and  _258
REMARK  111  A    between atoms: _260  and  _262
REMARK  112  A    between atoms: _262  and  _263
REMARK  113  A    between atoms: _266  and  _268
REMARK  114  A    between atoms: _268  and  _269
REMARK  115  A    between atoms: _272  and  _274
REMARK  116  A    between atoms: _274  and  _275
REMARK  117  A    between atoms: _274  and  _277
REMARK  118  A    between atoms: _277  and  _278
REMARK  119  A    between atoms: _281  and  _283
REMARK  120  A    between atoms: _283  and  _284
REMARK  121  A    between atoms: _287  and  _289
REMARK  122  A    between atoms: _289  and  _290
REMARK  123  A    between atoms: _293  and  _295
REMARK  124  A    between atoms: _295  and  _296
REMARK  125  A    between atoms: _298  and  _300
REMARK  126  A    between atoms: _300  and  _301
REMARK  127  A    between atoms: _300  and  _303
REMARK  128  A    between atoms: _303  and  _304
REMARK  129  A    between atoms: _309  and  _311
REMARK  130  A    between atoms: _311  and  _312
REMARK  131  A    between atoms: _311  and  _314
REMARK  132  A    between atoms: _314  and  _315
REMARK  133  A    between atoms: _315  and  _316
REMARK  134  A    between atoms: _319  and  _321
REMARK  135  A    between atoms: _321  and  _322
REMARK  136  A    between atoms: _321  and  _324
REMARK  137  A    between atoms: _324  and  _325
REMARK  138  A    between atoms: _328  and  _330
REMARK  139  A    between atoms: _330  and  _331
REMARK  140  A    between atoms: _330  and  _333
REMARK  141  A    between atoms: _333  and  _334
REMARK  142  A    between atoms: _334  and  _335
REMARK  143  A    between atoms: _335  and  _336
REMARK  144  A    between atoms: _345  and  _347
REMARK  145  A    between atoms: _347  and  _348
REMARK  146  A    between atoms: _351  and  _352
REMARK  147  A    between atoms: _357  and  _359
REMARK  148  A    between atoms: _359  and  _360
REMARK  149  A    between atoms: _359  and  _362
REMARK  150  A    between atoms: _362  and  _363
REMARK  151  A    between atoms: _363  and  _364
REMARK  152  A    between atoms: _366  and  _368
REMARK  153  A    between atoms: _368  and  _369
REMARK  154  A    between atoms: _368  and  _371
REMARK  155  A    between atoms: _371  and  _372
REMARK  156  A    between atoms: _372  and  _373
REMARK  157  A    between atoms: _375  and  _377
REMARK  158  A    between atoms: _377  and  _378
REMARK  159  A    between atoms: _377  and  _380
REMARK  160  A    between atoms: _380  and  _381
REMARK  161  A    between atoms: _386  and  _388
REMARK  162  A    between atoms: _388  and  _389
REMARK  163  A    between atoms: _388  and  _391
REMARK  164  A    between atoms: _391  and  _392
REMARK  165  A    between atoms: _395  and  _397
REMARK  166  A    between atoms: _397  and  _398
REMARK  167  A    between atoms: _397  and  _400
REMARK  168  A    between atoms: _400  and  _401
REMARK  169  A    between atoms: _403  and  _405
REMARK  170  A    between atoms: _405  and  _406
REMARK  171  A    between atoms: _405  and  _408
REMARK  172  A    between atoms: _408  and  _409
REMARK  173  A    between atoms: _409  and  _410
REMARK  174  A    between atoms: _410  and  _411
REMARK  175  A    between atoms: _411  and  _412
REMARK  176  A    between atoms: _416  and  _418
REMARK  177  A    between atoms: _418  and  _419
REMARK  178  A    between atoms: _418  and  _421
REMARK  179  A    between atoms: _421  and  _422
REMARK  180  A    between atoms: _425  and  _427
REMARK  181  A    between atoms: _427  and  _428
REMARK  182  A    between atoms: _427  and  _430
REMARK  183  A    between atoms: _430  and  _431
REMARK  184  A    between atoms: _431  and  _432
REMARK  185  A    between atoms: _435  and  _437
REMARK  186  A    between atoms: _437  and  _438
REMARK  187  A    between atoms: _441  and  _443
REMARK  188  A    between atoms: _443  and  _444
REMARK  189  A    between atoms: _443  and  _446
REMARK  190  A    between atoms: _449  and  _451
REMARK  191  A    between atoms: _451  and  _452
REMARK  192  A    between atoms: _451  and  _454
REMARK  193  A    between atoms: _454  and  _455
REMARK  194  A    between atoms: _457  and  _459
REMARK  195  A    between atoms: _459  and  _460
REMARK  196  A    between atoms: _462  and  _464
REMARK  197  A    between atoms: _464  and  _465
REMARK  198  A    between atoms: _464  and  _467
REMARK  199  A    between atoms: _467  and  _468
REMARK  200  A    between atoms: _473  and  _475
REMARK  201  A    between atoms: _475  and  _476
REMARK  202  A    between atoms: _475  and  _478
REMARK  203  A    between atoms: _478  and  _479
REMARK  204  A    between atoms: _484  and  _485
REMARK  205  A    between atoms: _487  and  _489
REMARK  206  A    between atoms: _489  and  _490
REMARK  207  A    between atoms: _489  and  _492
REMARK  208  A    between atoms: _494  and  _496
REMARK  209  A    between atoms: _496  and  _497
REMARK  210  A    between atoms: _496  and  _499
REMARK  211  A    between atoms: _499  and  _500
REMARK  212  A    between atoms: _503  and  _505
REMARK  213  A    between atoms: _505  and  _506
REMARK  214  A    between atoms: _505  and  _508
REMARK  215  A    between atoms: _508  and  _509
REMARK  216  A    between atoms: _512  and  _514
REMARK  217  A    between atoms: _514  and  _515
REMARK  218  A    between atoms: _514  and  _517
REMARK  219  A    between atoms: _517  and  _518
REMARK  220  A    between atoms: _518  and  _519
REMARK  221  A    between atoms: _519  and  _520
REMARK  222  A    between atoms: _520  and  _521
REMARK  223  A    between atoms: _525  and  _527
REMARK  224  A    between atoms: _527  and  _528
REMARK  225  A    between atoms: _527  and  _530
REMARK  226  A    between atoms: _530  and  _531
REMARK  227  A    between atoms: _531  and  _532
REMARK  228  A    between atoms: _532  and  _533
REMARK  229  A    between atoms: _533  and  _534
REMARK  230  A    between atoms: _538  and  _540
REMARK  231  A    between atoms: _540  and  _541
REMARK  232  A    between atoms: _540  and  _543
REMARK  233  A    between atoms: _543  and  _544
REMARK  234  A    between atoms: _544  and  _545
REMARK  235  A    between atoms: _545  and  _546
REMARK  236  A    between atoms: _555  and  _557
REMARK  237  A    between atoms: _557  and  _558
REMARK  238  A    between atoms: _557  and  _560
REMARK  239  A    between atoms: _560  and  _561
REMARK  240  A    between atoms: _564  and  _566
REMARK  241  A    between atoms: _566  and  _567
REMARK  242  A    between atoms: _570  and  _572
REMARK  243  A    between atoms: _572  and  _573
REMARK  244  A    between atoms: _572  and  _575
REMARK  245  A    between atoms: _575  and  _576
REMARK  246  A    between atoms: _576  and  _577
REMARK                            x       y       z     vdW  Elec       q    Type
REMARK                         _______ _______ _______ _____ _____    ______ ____
ROOT
ATOM      1  C   LYS A   1      37.349   1.862  -1.309  0.00  0.00    +0.238 C 
ATOM      2  O   LYS A   1      36.347   1.944  -0.609  0.00  0.00    -0.274 OA
ATOM      3  N   ASN A   2      38.347   1.042  -1.021  0.00  0.00    -0.298 N 
ATOM      4  H   ASN A   2      39.239   1.108  -1.552  0.00  0.00    +0.150 HD
ENDROOT
BRANCH   1   5
ATOM      5  CA  LYS A   1      37.483   2.709  -2.574  0.00  0.00    +0.145 C 
BRANCH   5   6
ATOM      6  N   LYS A   1      38.624   3.615  -2.471  0.00  0.00    -0.238 NA
ATOM      7  H   LYS A   1      39.565   3.256  -2.732  0.00  0.00    +0.142 HD
ENDBRANCH   5   6
BRANCH   5   8
ATOM      8  CB  LYS A   1      37.626   1.796  -3.787  0.00  0.00    +0.026 C 
BRANCH   8   9
ATOM      9  CG  LYS A   1      36.627   0.657  -3.892  0.00  0.00    -0.000 C 
BRANCH   9  10
ATOM     10  CD  LYS A   1      37.098  -0.325  -4.967  0.00  0.00    -0.024 C 
BRANCH  10  11
ATOM     11  CE  LYS A   1      36.172  -1.497  -5.152  0.00  0.00    -0.086 C 
BRANCH  11  12
ATOM     12  NZ  LYS A   1      34.810  -1.115  -5.579  0.00  0.00    +0.380 N 
ATOM     13  HZ1 LYS A   1      34.385  -0.493  -4.862  0.00  0.00    -0.089 HD
ATOM     14  HZ2 LYS A   1      34.229  -1.971  -5.686  0.00  0.00    -0.089 HD
ATOM     15  HZ3 LYS A   1      34.861  -0.613  -6.488  0.00  0.00    -0.089 HD
ENDBRANCH  11  12
ENDBRANCH  10  11
ENDBRANCH   9  10
ENDBRANCH   8   9
ENDBRANCH   5   8
ENDBRANCH   1   5
BRANCH   3  16
ATOM     16  CA  ASN A   2      38.205   0.046   0.037  0.00  0.00    +0.146 C 
BRANCH  16  17
ATOM     17  C   ASN A   2      38.330   0.562   1.462  0.00  0.00    +0.227 C 
ATOM     18  O   ASN A   2      37.873  -0.091   2.395  0.00  0.00    -0.286 OA
ENDBRANCH  16  17
BRANCH  16  19
ATOM     19  CB  ASN A   2      39.169  -1.117  -0.202  0.00  0.00    +0.112 C 
BRANCH  19  20
ATOM     20  CG  ASN A   2      38.752  -1.973  -1.377  0.00  0.00    +0.222 C 
ATOM     21  OD1 ASN A   2      37.566  -1.991  -1.753  0.00  0.00    -0.275 OA
ATOM     22  ND2 ASN A   2      39.713  -2.693  -1.967  0.00  0.00    -0.329 N 
ATOM     23 HD21 ASN A   2      40.690  -2.643  -1.615  0.00  0.00    +0.145 HD
ATOM     24 HD22 ASN A   2      39.483  -3.302  -2.778  0.00  0.00    +0.145 HD
ENDBRANCH  19  20
ENDBRANCH  16  19
ENDBRANCH   3  16
TORSDOF 11
REMARK  Name = ../refined-set-2016/3cct/3cct_pocket.pdb
REMARK  246 active torsions:
REMARK  status: ('A' for Active; 'I' for Inactive)
REMARK    1  A    between atoms: _1  and  _3
REMARK    2  A    between atoms: _3  and  _4
REMARK    3  A    between atoms: _3  and  _6
REMARK    4  A    between atoms: _6  and  _7
REMARK    5  A    between atoms: _10  and  _12
REMARK    6  A    between atoms: _12  and  _13
REMARK    7  A    between atoms: _12  and  _15
REMARK    8  A    between atoms: _15  and  _16
REMARK    9  A    between atoms: _16  and  _17
REMARK   10  A    between atoms: _20  and  _22
REMARK   11  A    between atoms: _22  and  _23
REMARK   12  A    between atoms: _25  and  _27
REMARK   13  A    between atoms: _27  and  _28
REMARK   14  A    between atoms: _27  and  _30
REMARK   15  A    between atoms: _32  and  _34
REMARK   16  A    between atoms: _34  and  _35
REMARK   17  A    between atoms: _34  and  _37
REMARK   18  A    between atoms: _37  and  _38
REMARK   19  A    between atoms: _41  and  _43
REMARK   20  A    between atoms: _43  and  _44
REMARK   21  A    between atoms: _43  and  _46
REMARK   22  A    between atoms: _49  and  _51
REMARK   23  A    between atoms: _51  and  _52
REMARK   24  A    between atoms: _55  and  _57
REMARK   25  A    between atoms: _57  and  _58
REMARK   26  A    between atoms: _57  and  _60
REMARK   27  A    between atoms: _60  and  _61
REMARK   28  A    between atoms: _63  and  _65
REMARK   29  A    between atoms: _65  and  _66
REMARK   30  A    between atoms: _65  and  _68
REMARK   31  A    between atoms: _68  and  _69
REMARK   32  A    between atoms: _72  and  _74
REMARK   33  A    between atoms: _74  and  _75
REMARK   34  A    between atoms: _74  and  _77
REMARK   35  A    between atoms: _77  and  _78
REMARK   36  A    between atoms: _83  and  _85
REMARK   37  A    between atoms: _85  and  _86
REMARK   38  A    between atoms: _85  and  _88
REMARK   39  A    between atoms: _88  and  _89
REMARK   40  A    between atoms: _89  and  _90
REMARK   41  A    between atoms: _90  and  _91
REMARK   42  A    between atoms: _100  and  _102
REMARK   43  A    between atoms: _102  and  _103
REMARK   44  A    between atoms: _105  and  _107
REMARK   45  A    between atoms: _107  and  _108
REMARK   46  A    between atoms: _107  and  _110
REMARK   47  A    between atoms: _113  and  _115
REMARK   48  A    between atoms: _115  and  _116
REMARK   49  A    between atoms: _115  and  _118
REMARK   50  A    between atoms: _118  and  _119
REMARK   51  A    between atoms: _122  and  _124
REMARK   52  A    between atoms: _124  and  _125
REMARK   53  A    between atoms: _124  and  _127
REMARK   54  A    between atoms: _127  and  _128
REMARK   55  A    between atoms: _128  and  _129
REMARK   56  A    between atoms: _129  and  _130
REMARK   57  A    between atoms: _130  and  _131
REMARK   58  A    between atoms: _135  and  _137
REMARK   59  A    between atoms: _137  and  _138
REMARK   60  A    between atoms: _137  and  _140
REMARK   61  A    between atoms: _140  and  _141
REMARK   62  A    between atoms: _141  and  _142
REMARK   63  A    between atoms: _142  and  _143
REMARK   64  A    between atoms: _143  and  _144
REMARK   65  A    between atoms: _148  and  _150
REMARK   66  A    between atoms: _150  and  _151
REMARK   67  A    between atoms: _150  and  _153
REMARK   68  A    between atoms: _153  and  _154
REMARK   69  A    between atoms: _159  and  _161
REMARK   70  A    between atoms: _161  and  _162
REMARK   71  A    between atoms: _161  and  _164
REMARK   72  A    between atoms: _164  and  _165
REMARK   73  A    between atoms: _170  and  _172
REMARK   74  A    between atoms: _172  and  _173
REMARK   75  A    between atoms: _176  and  _178
REMARK   76  A    between atoms: _178  and  _179
REMARK   77  A    between atoms: _178  and  _181
REMARK   78  A    between atoms: _181  and  _182
REMARK   79  A    between atoms: _187  and  _189
REMARK   80  A    between atoms: _189  and  _190
REMARK   81  A    between atoms: _193  and  _195
REMARK   82  A    between atoms: _195  and  _196
REMARK   83  A    between atoms: _199  and  _201
REMARK   84  A    between atoms: _201  and  _202
REMARK   85  A    between atoms: _201  and  _204
REMARK   86  A    between atoms: _204  and  _205
REMARK   87  A    between atoms: _210  and  _212
REMARK   88  A    between atoms: _212  and  _213
REMARK   89  A    between atoms: _212  and  _215
REMARK   90  A    between atoms: _215  and  _216
REMARK   91  A    between atoms: _219  and  _221
REMARK   92  A    between atoms: _221  and  _222
REMARK   93  A    between atoms: _224  and  _226
REMARK   94  A    between atoms: _226  and  _227
REMARK   95  A    between atoms: _226  and  _229
REMARK   96  A    between atoms: _229  and  _230
REMARK   97  A    between atoms: _230  and  _231
REMARK   98  A    between atoms: _234  and  _236
REMARK   99  A    between atoms: _236  and  _237
REMARK  100  A    between atoms: _236  and  _239
REMARK  101  A    between atoms: _239  and  _240
REMARK  102  A    between atoms: _242  and  _244
REMARK  103  A    between atoms: _244  and  _245
REMARK  104  A    between atoms: _244  and  _247
REMARK  105  A    between atoms: _247  and  _248
REMARK  106  A    between atoms: _251  and  _253
REMARK  107  A    between atoms: _253  and  _254
REMARK  108  A    between atoms: _253  and  _256
REMARK  109  A    between atoms: _256  and  _257
REMARK  110  A    between atoms: _257  and  _258
REMARK  111  A    between atoms: _260  and  _262
REMARK  112  A    between atoms: _262  and  _263
REMARK  113  A    between atoms: _266  and  _268
REMARK  114  A    between atoms: _268  and  _269
REMARK  115  A    between atoms: _272  and  _274
REMARK  116  A    between atoms: _274  and  _275
REMARK  117  A    between atoms: _274  and  _277
REMARK  118  A    between atoms: _277  and  _278
REMARK  119  A    between atoms: _281  and  _283
REMARK  120  A    between atoms: _283  and  _284
REMARK  121  A    between atoms: _287  and  _289
REMARK  122  A    between atoms: _289  and  _290
REMARK  123  A    between atoms: _293  and  _295
REMARK  124  A    between atoms: _295  and  _296
REMARK  125  A    between atoms: _298  and  _300
REMARK  126  A    between atoms: _300  and  _301
REMARK  127  A    between atoms: _300  and  _303
REMARK  128  A    between atoms: _303  and  _304
REMARK  129  A    between atoms: _309  and  _311
REMARK  130  A    between atoms: _311  and  _312
REMARK  131  A    between atoms: _311  and  _314
REMARK  132  A    between atoms: _314  and  _315
REMARK  133  A    between atoms: _315  and  _316
REMARK  134  A    between atoms: _319  and  _321
REMARK  135  A    between atoms: _321  and  _322
REMARK  136  A    between atoms: _321  and  _324
REMARK  137  A    between atoms: _324  and  _325
REMARK  138  A    between atoms: _328  and  _330
REMARK  139  A    between atoms: _330  and  _331
REMARK  140  A    between atoms: _330  and  _333
REMARK  141  A    between atoms: _333  and  _334
REMARK  142  A    between atoms: _334  and  _335
REMARK  143  A    between atoms: _335  and  _336
REMARK  144  A    between atoms: _345  and  _347
REMARK  145  A    between atoms: _347  and  _348
REMARK  146  A    between atoms: _351  and  _352
REMARK  147  A    between atoms: _357  and  _359
REMARK  148  A    between atoms: _359  and  _360
REMARK  149  A    between atoms: _359  and  _362
REMARK  150  A    between atoms: _362  and  _363
REMARK  151  A    between atoms: _363  and  _364
REMARK  152  A    between atoms: _366  and  _368
REMARK  153  A    between atoms: _368  and  _369
REMARK  154  A    between atoms: _368  and  _371
REMARK  155  A    between atoms: _371  and  _372
REMARK  156  A    between atoms: _372  and  _373
REMARK  157  A    between atoms: _375  and  _377
REMARK  158  A    between atoms: _377  and  _378
REMARK  159  A    between atoms: _377  and  _380
REMARK  160  A    between atoms: _380  and  _381
REMARK  161  A    between atoms: _386  and  _388
REMARK  162  A    between atoms: _388  and  _389
REMARK  163  A    between atoms: _388  and  _391
REMARK  164  A    between atoms: _391  and  _392
REMARK  165  A    between atoms: _395  and  _397
REMARK  166  A    between atoms: _397  and  _398
REMARK  167  A    between atoms: _397  and  _400
REMARK  168  A    between atoms: _400  and  _401
REMARK  169  A    between atoms: _403  and  _405
REMARK  170  A    between atoms: _405  and  _406
REMARK  171  A    between atoms: _405  and  _408
REMARK  172  A    between atoms: _408  and  _409
REMARK  173  A    between atoms: _409  and  _410
REMARK  174  A    between atoms: _410  and  _411
REMARK  175  A    between atoms: _411  and  _412
REMARK  176  A    between atoms: _416  and  _418
REMARK  177  A    between atoms: _418  and  _419
REMARK  178  A    between atoms: _418  and  _421
REMARK  179  A    between atoms: _421  and  _422
REMARK  180  A    between atoms: _425  and  _427
REMARK  181  A    between atoms: _427  and  _428
REMARK  182  A    between atoms: _427  and  _430
REMARK  183  A    between atoms: _430  and  _431
REMARK  184  A    between atoms: _431  and  _432
REMARK  185  A    between atoms: _435  and  _437
REMARK  186  A    between atoms: _437  and  _438
REMARK  187  A    between atoms: _441  and  _443
REMARK  188  A    between atoms: _443  and  _444
REMARK  189  A    between atoms: _443  and  _446
REMARK  190  A    between atoms: _449  and  _451
REMARK  191  A    between atoms: _451  and  _452
REMARK  192  A    between atoms: _451  and  _454
REMARK  193  A    between atoms: _454  and  _455
REMARK  194  A    between atoms: _457  and  _459
REMARK  195  A    between atoms: _459  and  _460
REMARK  196  A    between atoms: _462  and  _464
REMARK  197  A    between atoms: _464  and  _465
REMARK  198  A    between atoms: _464  and  _467
REMARK  199  A    between atoms: _467  and  _468
REMARK  200  A    between atoms: _473  and  _475
REMARK  201  A    between atoms: _475  and  _476
REMARK  202  A    between atoms: _475  and  _478
REMARK  203  A    between atoms: _478  and  _479
REMARK  204  A    between atoms: _484  and  _485
REMARK  205  A    between atoms: _487  and  _489
REMARK  206  A    between atoms: _489  and  _490
REMARK  207  A    between atoms: _489  and  _492
REMARK  208  A    between atoms: _494  and  _496
REMARK  209  A    between atoms: _496  and  _497
REMARK  210  A    between atoms: _496  and  _499
REMARK  211  A    between atoms: _499  and  _500
REMARK  212  A    between atoms: _503  and  _505
REMARK  213  A    between atoms: _505  and  _506
REMARK  214  A    between atoms: _505  and  _508
REMARK  215  A    between atoms: _508  and  _509
REMARK  216  A    between atoms: _512  and  _514
REMARK  217  A    between atoms: _514  and  _515
REMARK  218  A    between atoms: _514  and  _517
REMARK  219  A    between atoms: _517  and  _518
REMARK  220  A    between atoms: _518  and  _519
REMARK  221  A    between atoms: _519  and  _520
REMARK  222  A    between atoms: _520  and  _521
REMARK  223  A    between atoms: _525  and  _527
REMARK  224  A    between atoms: _527  and  _528
REMARK  225  A    between atoms: _527  and  _530
REMARK  226  A    between atoms: _530  and  _531
REMARK  227  A    between atoms: _531  and  _532
REMARK  228  A    between atoms: _532  and  _533
REMARK  229  A    between atoms: _533  and  _534
REMARK  230  A    between atoms: _538  and  _540
REMARK  231  A    between atoms: _540  and  _541
REMARK  232  A    between atoms: _540  and  _543
REMARK  233  A    between atoms: _543  and  _544
REMARK  234  A    between atoms: _544  and  _545
REMARK  235  A    between atoms: _545  and  _546
REMARK  236  A    between atoms: _555  and  _557
REMARK  237  A    between atoms: _557  and  _558
REMARK  238  A    between atoms: _557  and  _560
REMARK  239  A    between atoms: _560  and  _561
REMARK  240  A    between atoms: _564  and  _566
REMARK  241  A    between atoms: _566  and  _567
REMARK  242  A    between atoms: _570  and  _572
REMARK  243  A    between atoms: _572  and  _573
REMARK  244  A    between atoms: _572  and  _575
REMARK  245  A    between atoms: _575  and  _576
REMARK  246  A    between atoms: _576  and  _577
REMARK                            x       y       z     vdW  Elec       q    Type
REMARK                         _______ _______ _______ _____ _____    ______ ____
ROOT
ATOM      1  C   HIS A   3      34.843  -9.736  -2.935  0.00  0.00    +0.241 C 
ATOM      2  N   ALA A   4      35.396  -9.745  -1.738  0.00  0.00    -0.297 N 
ATOM      3  H   ALA A   4      35.603  -8.843  -1.264  0.00  0.00    +0.150 HD
ATOM      4  O   HIS A   3      34.596 -10.766  -3.532  0.00  0.00    -0.273 OA
ENDROOT
BRANCH   2   5
ATOM      5  CA  ALA A   4      35.723 -10.999  -1.068  0.00  0.00    +0.149 C 
ATOM      6  CB  ALA A   4      36.208 -10.729   0.336  0.00  0.00    +0.031 C 
BRANCH   5   7
ATOM      7  C   ALA A   4      34.537 -11.953  -1.031  0.00  0.00    +0.241 C 
ATOM      8  N   ALA A   5      33.326 -11.416  -0.898  0.00  0.00    -0.297 N 
ATOM      9  H   ALA A   5      33.251 -10.384  -0.793  0.00  0.00    +0.150 HD
ATOM     10  O   ALA A   4      34.733 -13.153  -1.093  0.00  0.00    -0.273 OA
BRANCH   8  11
ATOM     11  CA  ALA A   5      32.091 -12.209  -0.892  0.00  0.00    +0.149 C 
ATOM     12  CB  ALA A   5      30.883 -11.301  -0.706  0.00  0.00    +0.031 C 
BRANCH  11  13
ATOM     13  C   ALA A   5      31.902 -13.065  -2.155  0.00  0.00    +0.241 C 
ATOM     14  O   ALA A   5      31.390 -14.174  -2.077  0.00  0.00    -0.273 OA
ATOM     15  N   ASN A   6      32.298 -12.543  -3.313  0.00  0.00    -0.297 N 
ATOM     16  H   ASN A   6      32.647 -11.564  -3.338  0.00  0.00    +0.150 HD
BRANCH  15  17
ATOM     17  CA  ASN A   6      32.252 -13.322  -4.554  0.00  0.00    +0.158 C 
BRANCH  17  18
ATOM     18  C   ASN A   6      33.029 -14.615  -4.444  0.00  0.00    +0.241 C 
ATOM     19  N   ILE A   7      34.266 -14.512  -3.975  0.00  0.00    -0.298 N 
ATOM     20  H   ILE A   7      34.598 -13.590  -3.628  0.00  0.00    +0.150 HD
ATOM     21  O   ASN A   6      32.521 -15.682  -4.783  0.00  0.00    -0.273 OA
BRANCH  19  22
ATOM     22  CA  ILE A   7      35.170 -15.648  -3.932  0.00  0.00    +0.137 C 
BRANCH  22  23
ATOM     23  CB  ILE A   7      36.626 -15.177  -3.757  0.00  0.00    +0.026 C 
ATOM     24  CG2 ILE A   7      37.521 -16.331  -3.270  0.00  0.00    +0.002 C 
BRANCH  23  25
ATOM     25  CG1 ILE A   7      37.174 -14.638  -5.076  0.00  0.00    +0.002 C 
ATOM     26  CD1 ILE A   7      36.473 -13.384  -5.598  0.00  0.00    +0.000 C 
ENDBRANCH  23  25
ENDBRANCH  22  23
BRANCH  22  27
ATOM     27  C   ILE A   7      34.774 -16.590  -2.808  0.00  0.00    +0.227 C 
ATOM     28  O   ILE A   7      34.784 -17.808  -2.972  0.00  0.00    -0.286 OA
ENDBRANCH  22  27
ENDBRANCH  19  22
ENDBRANCH  17  18
BRANCH  17  29
ATOM     29  CB  ASN A   6      32.782 -12.518  -5.747  0.00  0.00    +0.114 C 
BRANCH  29  30
ATOM     30  CG  ASN A   6      31.717 -11.668  -6.403  0.00  0.00    +0.222 C 
ATOM     31  OD1 ASN A   6      30.533 -11.864  -6.176  0.00  0.00    -0.275 OA
ATOM     32  ND2 ASN A   6      32.140 -10.713  -7.229  0.00  0.00    -0.329 N 
ATOM     33 HD21 ASN A   6      33.158 -10.581  -7.393  0.00  0.00    +0.145 HD
ATOM     34 HD22 ASN A   6      31.452 -10.099  -7.710  0.00  0.00    +0.145 HD
ENDBRANCH  29  30
ENDBRANCH  17  29
ENDBRANCH  15  17
ENDBRANCH  11  13
ENDBRANCH   8  11
ENDBRANCH   5   7
ENDBRANCH   2   5
BRANCH   1  35
ATOM     35  CA  HIS A   3      34.471  -8.371  -3.522  0.00  0.00    +0.155 C 
BRANCH  35  37
ATOM     36  C   ALA A   2      35.158  -6.031  -3.454  0.00  0.00    +0.241 C 
ATOM     37  N   HIS A   3      35.490  -7.319  -3.359  0.00  0.00    -0.297 N 
ATOM     38  H   HIS A   3      36.477  -7.584  -3.168  0.00  0.00    +0.150 HD
ATOM     39  O   ALA A   2      34.018  -5.660  -3.700  0.00  0.00    -0.273 OA
BRANCH  36  40
ATOM     40  CA  ALA A   2      36.252  -5.000  -3.232  0.00  0.00    +0.149 C 
ATOM     41  CB  ALA A   2      37.290  -5.061  -4.353  0.00  0.00    +0.031 C 
BRANCH  40  44
ATOM     42  C   ASN A   1      36.426  -4.634  -0.835  0.00  0.00    +0.239 C 
ATOM     43  O   ASN A   1      35.368  -3.984  -0.807  0.00  0.00    -0.274 OA
ATOM     44  N   ALA A   2      36.896  -5.192  -1.942  0.00  0.00    -0.297 N 
ATOM     45  H   ALA A   2      37.749  -5.784  -1.886  0.00  0.00    +0.150 HD
BRANCH  42  46
ATOM     46  CA  ASN A   1      37.287  -4.823   0.424  0.00  0.00    +0.154 C 
BRANCH  46  47
ATOM     47  N   ASN A   1      36.828  -3.990   1.512  0.00  0.00    -0.238 NA
ATOM     48  H   ASN A   1      35.824  -3.722   1.539  0.00  0.00    +0.142 HD
ENDBRANCH  46  47
BRANCH  46  49
ATOM     49  CB  ASN A   1      37.327  -6.288   0.868  0.00  0.00    +0.111 C 
BRANCH  49  50
ATOM     50  CG  ASN A   1      35.944  -6.885   1.079  0.00  0.00    +0.221 C 
ATOM     51  ND2 ASN A   1      35.457  -6.853   2.314  0.00  0.00    -0.329 N 
ATOM     52 HD21 ASN A   1      36.008  -6.414   3.079  0.00  0.00    +0.145 HD
ATOM     53 HD22 ASN A   1      34.525  -7.267   2.516  0.00  0.00    +0.145 HD
ATOM     54  OD1 ASN A   1      35.332  -7.394   0.134  0.00  0.00    -0.275 OA
ENDBRANCH  49  50
ENDBRANCH  46  49
ENDBRANCH  42  46
ENDBRANCH  40  44
ENDBRANCH  36  40
ENDBRANCH  35  37
BRANCH  35  55
ATOM     55  CB  HIS A   3      34.057  -8.520  -5.000  0.00  0.00    +0.076 C 
BRANCH  55  56
ATOM     56  CG  HIS A   3      35.104  -9.130  -5.874  0.00  0.00    +0.082 A 
ATOM     57  CD2 HIS A   3      36.458  -9.102  -5.805  0.00  0.00    +0.115 A 
ATOM     58  NE2 HIS A   3      36.933  -9.850  -6.857  0.00  0.00    -0.221 NA
ATOM     59  CE1 HIS A   3      35.907 -10.318  -7.547  0.00  0.00    +0.199 A 
ATOM     60  ND1 HIS A   3      34.792  -9.905  -6.969  0.00  0.00    -0.227 NA
ENDBRANCH  55  56
ENDBRANCH  35  55
ENDBRANCH   1  35
TORSDOF 22
REMARK  Name = ../refined-set-2016/3cct/3cct_pocket.pdb
REMARK  246 active torsions:
REMARK  status: ('A' for Active; 'I' for Inactive)
REMARK    1  A    between atoms: _1  and  _3
REMARK    2  A    between atoms: _3  and  _4
REMARK    3  A    between atoms: _3  and  _6
REMARK    4  A    between atoms: _6  and  _7
REMARK    5  A    between atoms: _10  and  _12
REMARK    6  A    between atoms: _12  and  _13
REMARK    7  A    between atoms: _12  and  _15
REMARK    8  A    between atoms: _15  and  _16
REMARK    9  A    between atoms: _16  and  _17
REMARK   10  A    between atoms: _20  and  _22
REMARK   11  A    between atoms: _22  and  _23
REMARK   12  A    between atoms: _25  and  _27
REMARK   13  A    between atoms: _27  and  _28
REMARK   14  A    between atoms: _27  and  _30
REMARK   15  A    between atoms: _32  and  _34
REMARK   16  A    between atoms: _34  and  _35
REMARK   17  A    between atoms: _34  and  _37
REMARK   18  A    between atoms: _37  and  _38
REMARK   19  A    between atoms: _41  and  _43
REMARK   20  A    between atoms: _43  and  _44
REMARK   21  A    between atoms: _43  and  _46
REMARK   22  A    between atoms: _49  and  _51
REMARK   23  A    between atoms: _51  and  _52
REMARK   24  A    between atoms: _55  and  _57
REMARK   25  A    between atoms: _57  and  _58
REMARK   26  A    between atoms: _57  and  _60
REMARK   27  A    between atoms: _60  and  _61
REMARK   28  A    between atoms: _63  and  _65
REMARK   29  A    between atoms: _65  and  _66
REMARK   30  A    between atoms: _65  and  _68
REMARK   31  A    between atoms: _68  and  _69
REMARK   32  A    between atoms: _72  and  _74
REMARK   33  A    between atoms: _74  and  _75
REMARK   34  A    between atoms: _74  and  _77
REMARK   35  A    between atoms: _77  and  _78
REMARK   36  A    between atoms: _83  and  _85
REMARK   37  A    between atoms: _85  and  _86
REMARK   38  A    between atoms: _85  and  _88
REMARK   39  A    between atoms: _88  and  _89
REMARK   40  A    between atoms: _89  and  _90
REMARK   41  A    between atoms: _90  and  _91
REMARK   42  A    between atoms: _100  and  _102
REMARK   43  A    between atoms: _102  and  _103
REMARK   44  A    between atoms: _105  and  _107
REMARK   45  A    between atoms: _107  and  _108
REMARK   46  A    between atoms: _107  and  _110
REMARK   47  A    between atoms: _113  and  _115
REMARK   48  A    between atoms: _115  and  _116
REMARK   49  A    between atoms: _115  and  _118
REMARK   50  A    between atoms: _118  and  _119
REMARK   51  A    between atoms: _122  and  _124
REMARK   52  A    between atoms: _124  and  _125
REMARK   53  A    between atoms: _124  and  _127
REMARK   54  A    between atoms: _127  and  _128
REMARK   55  A    between atoms: _128  and  _129
REMARK   56  A    between atoms: _129  and  _130
REMARK   57  A    between atoms: _130  and  _131
REMARK   58  A    between atoms: _135  and  _137
REMARK   59  A    between atoms: _137  and  _138
REMARK   60  A    between atoms: _137  and  _140
REMARK   61  A    between atoms: _140  and  _141
REMARK   62  A    between atoms: _141  and  _142
REMARK   63  A    between atoms: _142  and  _143
REMARK   64  A    between atoms: _143  and  _144
REMARK   65  A    between atoms: _148  and  _150
REMARK   66  A    between atoms: _150  and  _151
REMARK   67  A    between atoms: _150  and  _153
REMARK   68  A    between atoms: _153  and  _154
REMARK   69  A    between atoms: _159  and  _161
REMARK   70  A    between atoms: _161  and  _162
REMARK   71  A    between atoms: _161  and  _164
REMARK   72  A    between atoms: _164  and  _165
REMARK   73  A    between atoms: _170  and  _172
REMARK   74  A    between atoms: _172  and  _173
REMARK   75  A    between atoms: _176  and  _178
REMARK   76  A    between atoms: _178  and  _179
REMARK   77  A    between atoms: _178  and  _181
REMARK   78  A    between atoms: _181  and  _182
REMARK   79  A    between atoms: _187  and  _189
REMARK   80  A    between atoms: _189  and  _190
REMARK   81  A    between atoms: _193  and  _195
REMARK   82  A    between atoms: _195  and  _196
REMARK   83  A    between atoms: _199  and  _201
REMARK   84  A    between atoms: _201  and  _202
REMARK   85  A    between atoms: _201  and  _204
REMARK   86  A    between atoms: _204  and  _205
REMARK   87  A    between atoms: _210  and  _212
REMARK   88  A    between atoms: _212  and  _213
REMARK   89  A    between atoms: _212  and  _215
REMARK   90  A    between atoms: _215  and  _216
REMARK   91  A    between atoms: _219  and  _221
REMARK   92  A    between atoms: _221  and  _222
REMARK   93  A    between atoms: _224  and  _226
REMARK   94  A    between atoms: _226  and  _227
REMARK   95  A    between atoms: _226  and  _229
REMARK   96  A    between atoms: _229  and  _230
REMARK   97  A    between atoms: _230  and  _231
REMARK   98  A    between atoms: _234  and  _236
REMARK   99  A    between atoms: _236  and  _237
REMARK  100  A    between atoms: _236  and  _239
REMARK  101  A    between atoms: _239  and  _240
REMARK  102  A    between atoms: _242  and  _244
REMARK  103  A    between atoms: _244  and  _245
REMARK  104  A    between atoms: _244  and  _247
REMARK  105  A    between atoms: _247  and  _248
REMARK  106  A    between atoms: _251  and  _253
REMARK  107  A    between atoms: _253  and  _254
REMARK  108  A    between atoms: _253  and  _256
REMARK  109  A    between atoms: _256  and  _257
REMARK  110  A    between atoms: _257  and  _258
REMARK  111  A    between atoms: _260  and  _262
REMARK  112  A    between atoms: _262  and  _263
REMARK  113  A    between atoms: _266  and  _268
REMARK  114  A    between atoms: _268  and  _269
REMARK  115  A    between atoms: _272  and  _274
REMARK  116  A    between atoms: _274  and  _275
REMARK  117  A    between atoms: _274  and  _277
REMARK  118  A    between atoms: _277  and  _278
REMARK  119  A    between atoms: _281  and  _283
REMARK  120  A    between atoms: _283  and  _284
REMARK  121  A    between atoms: _287  and  _289
REMARK  122  A    between atoms: _289  and  _290
REMARK  123  A    between atoms: _293  and  _295
REMARK  124  A    between atoms: _295  and  _296
REMARK  125  A    between atoms: _298  and  _300
REMARK  126  A    between atoms: _300  and  _301
REMARK  127  A    between atoms: _300  and  _303
REMARK  128  A    between atoms: _303  and  _304
REMARK  129  A    between atoms: _309  and  _311
REMARK  130  A    between atoms: _311  and  _312
REMARK  131  A    between atoms: _311  and  _314
REMARK  132  A    between atoms: _314  and  _315
REMARK  133  A    between atoms: _315  and  _316
REMARK  134  A    between atoms: _319  and  _321
REMARK  135  A    between atoms: _321  and  _322
REMARK  136  A    between atoms: _321  and  _324
REMARK  137  A    between atoms: _324  and  _325
REMARK  138  A    between atoms: _328  and  _330
REMARK  139  A    between atoms: _330  and  _331
REMARK  140  A    between atoms: _330  and  _333
REMARK  141  A    between atoms: _333  and  _334
REMARK  142  A    between atoms: _334  and  _335
REMARK  143  A    between atoms: _335  and  _336
REMARK  144  A    between atoms: _345  and  _347
REMARK  145  A    between atoms: _347  and  _348
REMARK  146  A    between atoms: _351  and  _352
REMARK  147  A    between atoms: _357  and  _359
REMARK  148  A    between atoms: _359  and  _360
REMARK  149  A    between atoms: _359  and  _362
REMARK  150  A    between atoms: _362  and  _363
REMARK  151  A    between atoms: _363  and  _364
REMARK  152  A    between atoms: _366  and  _368
REMARK  153  A    between atoms: _368  and  _369
REMARK  154  A    between atoms: _368  and  _371
REMARK  155  A    between atoms: _371  and  _372
REMARK  156  A    between atoms: _372  and  _373
REMARK  157  A    between atoms: _375  and  _377
REMARK  158  A    between atoms: _377  and  _378
REMARK  159  A    between atoms: _377  and  _380
REMARK  160  A    between atoms: _380  and  _381
REMARK  161  A    between atoms: _386  and  _388
REMARK  162  A    between atoms: _388  and  _389
REMARK  163  A    between atoms: _388  and  _391
REMARK  164  A    between atoms: _391  and  _392
REMARK  165  A    between atoms: _395  and  _397
REMARK  166  A    between atoms: _397  and  _398
REMARK  167  A    between atoms: _397  and  _400
REMARK  168  A    between atoms: _400  and  _401
REMARK  169  A    between atoms: _403  and  _405
REMARK  170  A    between atoms: _405  and  _406
REMARK  171  A    between atoms: _405  and  _408
REMARK  172  A    between atoms: _408  and  _409
REMARK  173  A    between atoms: _409  and  _410
REMARK  174  A    between atoms: _410  and  _411
REMARK  175  A    between atoms: _411  and  _412
REMARK  176  A    between atoms: _416  and  _418
REMARK  177  A    between atoms: _418  and  _419
REMARK  178  A    between atoms: _418  and  _421
REMARK  179  A    between atoms: _421  and  _422
REMARK  180  A    between atoms: _425  and  _427
REMARK  181  A    between atoms: _427  and  _428
REMARK  182  A    between atoms: _427  and  _430
REMARK  183  A    between atoms: _430  and  _431
REMARK  184  A    between atoms: _431  and  _432
REMARK  185  A    between atoms: _435  and  _437
REMARK  186  A    between atoms: _437  and  _438
REMARK  187  A    between atoms: _441  and  _443
REMARK  188  A    between atoms: _443  and  _444
REMARK  189  A    between atoms: _443  and  _446
REMARK  190  A    between atoms: _449  and  _451
REMARK  191  A    between atoms: _451  and  _452
REMARK  192  A    between atoms: _451  and  _454
REMARK  193  A    between atoms: _454  and  _455
REMARK  194  A    between atoms: _457  and  _459
REMARK  195  A    between atoms: _459  and  _460
REMARK  196  A    between atoms: _462  and  _464
REMARK  197  A    between atoms: _464  and  _465
REMARK  198  A    between atoms: _464  and  _467
REMARK  199  A    between atoms: _467  and  _468
REMARK  200  A    between atoms: _473  and  _475
REMARK  201  A    between atoms: _475  and  _476
REMARK  202  A    between atoms: _475  and  _478
REMARK  203  A    between atoms: _478  and  _479
REMARK  204  A    between atoms: _484  and  _485
REMARK  205  A    between atoms: _487  and  _489
REMARK  206  A    between atoms: _489  and  _490
REMARK  207  A    between atoms: _489  and  _492
REMARK  208  A    between atoms: _494  and  _496
REMARK  209  A    between atoms: _496  and  _497
REMARK  210  A    between atoms: _496  and  _499
REMARK  211  A    between atoms: _499  and  _500
REMARK  212  A    between atoms: _503  and  _505
REMARK  213  A    between atoms: _505  and  _506
REMARK  214  A    between atoms: _505  and  _508
REMARK  215  A    between atoms: _508  and  _509
REMARK  216  A    between atoms: _512  and  _514
REMARK  217  A    between atoms: _514  and  _515
REMARK  218  A    between atoms: _514  and  _517
REMARK  219  A    between atoms: _517  and  _518
REMARK  220  A    between atoms: _518  and  _519
REMARK  221  A    between atoms: _519  and  _520
REMARK  222  A    between atoms: _520  and  _521
REMARK  223  A    between atoms: _525  and  _527
REMARK  224  A    between atoms: _527  and  _528
REMARK  225  A    between atoms: _527  and  _530
REMARK  226  A    between atoms: _530  and  _531
REMARK  227  A    between atoms: _531  and  _532
REMARK  228  A    between atoms: _532  and  _533
REMARK  229  A    between atoms: _533  and  _534
REMARK  230  A    between atoms: _538  and  _540
REMARK  231  A    between atoms: _540  and  _541
REMARK  232  A    between atoms: _540  and  _543
REMARK  233  A    between atoms: _543  and  _544
REMARK  234  A    between atoms: _544  and  _545
REMARK  235  A    between atoms: _545  and  _546
REMARK  236  A    between atoms: _555  and  _557
REMARK  237  A    between atoms: _557  and  _558
REMARK  238  A    between atoms: _557  and  _560
REMARK  239  A    between atoms: _560  and  _561
REMARK  240  A    between atoms: _564  and  _566
REMARK  241  A    between atoms: _566  and  _567
REMARK  242  A    between atoms: _570  and  _572
REMARK  243  A    between atoms: _572  and  _573
REMARK  244  A    between atoms: _572  and  _575
REMARK  245  A    between atoms: _575  and  _576
REMARK  246  A    between atoms: _576  and  _577
REMARK                            x       y       z     vdW  Elec       q    Type
REMARK                         _______ _______ _______ _____ _____    ______ ____
ROOT
ATOM      1  CA  GLU A   2      40.954  -8.460  -5.105  0.00  0.00    +0.137 C 
ENDROOT
BRANCH   1   3
ATOM      2  C   GLY A   1      40.247 -10.306  -6.525  0.00  0.00    +0.240 C 
ATOM      3  N   GLU A   2      40.850  -9.872  -5.420  0.00  0.00    -0.298 N 
ATOM      4  H   GLU A   2      41.259 -10.567  -4.763  0.00  0.00    +0.150 HD
ATOM      5  O   GLY A   1      39.767  -9.547  -7.369  0.00  0.00    -0.274 OA
BRANCH   2   6
ATOM      6  CA  GLY A   1      40.195 -11.807  -6.720  0.00  0.00    +0.169 C 
BRANCH   6   7
ATOM      7  N   GLY A   1      41.378 -12.488  -6.228  0.00  0.00    -0.236 NA
ATOM      8  H   GLY A   1      41.278 -13.175  -5.454  0.00  0.00    +0.142 HD
ENDBRANCH   6   7
ENDBRANCH   2   6
ENDBRANCH   1   3
BRANCH   1   9
ATOM      9  C   GLU A   2      41.922  -7.803  -6.087  0.00  0.00    +0.227 C 
ATOM     10  O   GLU A   2      41.706  -6.681  -6.537  0.00  0.00    -0.286 OA
ENDBRANCH   1   9
BRANCH   1  11
ATOM     11  CB  GLU A   2      41.444  -8.260  -3.672  0.00  0.00    +0.039 C 
BRANCH  11  12
ATOM     12  CG  GLU A   2      40.434  -8.645  -2.594  0.00  0.00    +0.116 C 
BRANCH  12  13
ATOM     13  CD  GLU A   2      39.239  -7.721  -2.573  0.00  0.00    +0.365 C 
ATOM     14  OE2 GLU A   2      39.361  -6.608  -2.024  0.00  0.00    -0.246 OA
ATOM     15  OE1 GLU A   2      38.198  -8.092  -3.147  0.00  0.00    -0.246 OA
ENDBRANCH  12  13
ENDBRANCH  11  12
ENDBRANCH   1  11
TORSDOF 7
REMARK  Name = ../refined-set-2016/3cct/3cct_pocket.pdb
REMARK  246 active torsions:
REMARK  status: ('A' for Active; 'I' for Inactive)
REMARK    1  A    between atoms: _1  and  _3
REMARK    2  A    between atoms: _3  and  _4
REMARK    3  A    between atoms: _3  and  _6
REMARK    4  A    between atoms: _6  and  _7
REMARK    5  A    between atoms: _10  and  _12
REMARK    6  A    between atoms: _12  and  _13
REMARK    7  A    between atoms: _12  and  _15
REMARK    8  A    between atoms: _15  and  _16
REMARK    9  A    between atoms: _16  and  _17
REMARK   10  A    between atoms: _20  and  _22
REMARK   11  A    between atoms: _22  and  _23
REMARK   12  A    between atoms: _25  and  _27
REMARK   13  A    between atoms: _27  and  _28
REMARK   14  A    between atoms: _27  and  _30
REMARK   15  A    between atoms: _32  and  _34
REMARK   16  A    between atoms: _34  and  _35
REMARK   17  A    between atoms: _34  and  _37
REMARK   18  A    between atoms: _37  and  _38
REMARK   19  A    between atoms: _41  and  _43
REMARK   20  A    between atoms: _43  and  _44
REMARK   21  A    between atoms: _43  and  _46
REMARK   22  A    between atoms: _49  and  _51
REMARK   23  A    between atoms: _51  and  _52
REMARK   24  A    between atoms: _55  and  _57
REMARK   25  A    between atoms: _57  and  _58
REMARK   26  A    between atoms: _57  and  _60
REMARK   27  A    between atoms: _60  and  _61
REMARK   28  A    between atoms: _63  and  _65
REMARK   29  A    between atoms: _65  and  _66
REMARK   30  A    between atoms: _65  and  _68
REMARK   31  A    between atoms: _68  and  _69
REMARK   32  A    between atoms: _72  and  _74
REMARK   33  A    between atoms: _74  and  _75
REMARK   34  A    between atoms: _74  and  _77
REMARK   35  A    between atoms: _77  and  _78
REMARK   36  A    between atoms: _83  and  _85
REMARK   37  A    between atoms: _85  and  _86
REMARK   38  A    between atoms: _85  and  _88
REMARK   39  A    between atoms: _88  and  _89
REMARK   40  A    between atoms: _89  and  _90
REMARK   41  A    between atoms: _90  and  _91
REMARK   42  A    between atoms: _100  and  _102
REMARK   43  A    between atoms: _102  and  _103
REMARK   44  A    between atoms: _105  and  _107
REMARK   45  A    between atoms: _107  and  _108
REMARK   46  A    between atoms: _107  and  _110
REMARK   47  A    between atoms: _113  and  _115
REMARK   48  A    between atoms: _115  and  _116
REMARK   49  A    between atoms: _115  and  _118
REMARK   50  A    between atoms: _118  and  _119
REMARK   51  A    between atoms: _122  and  _124
REMARK   52  A    between atoms: _124  and  _125
REMARK   53  A    between atoms: _124  and  _127
REMARK   54  A    between atoms: _127  and  _128
REMARK   55  A    between atoms: _128  and  _129
REMARK   56  A    between atoms: _129  and  _130
REMARK   57  A    between atoms: _130  and  _131
REMARK   58  A    between atoms: _135  and  _137
REMARK   59  A    between atoms: _137  and  _138
REMARK   60  A    between atoms: _137  and  _140
REMARK   61  A    between atoms: _140  and  _141
REMARK   62  A    between atoms: _141  and  _142
REMARK   63  A    between atoms: _142  and  _143
REMARK   64  A    between atoms: _143  and  _144
REMARK   65  A    between atoms: _148  and  _150
REMARK   66  A    between atoms: _150  and  _151
REMARK   67  A    between atoms: _150  and  _153
REMARK   68  A    between atoms: _153  and  _154
REMARK   69  A    between atoms: _159  and  _161
REMARK   70  A    between atoms: _161  and  _162
REMARK   71  A    between atoms: _161  and  _164
REMARK   72  A    between atoms: _164  and  _165
REMARK   73  A    between atoms: _170  and  _172
REMARK   74  A    between atoms: _172  and  _173
REMARK   75  A    between atoms: _176  and  _178
REMARK   76  A    between atoms: _178  and  _179
REMARK   77  A    between atoms: _178  and  _181
REMARK   78  A    between atoms: _181  and  _182
REMARK   79  A    between atoms: _187  and  _189
REMARK   80  A    between atoms: _189  and  _190
REMARK   81  A    between atoms: _193  and  _195
REMARK   82  A    between atoms: _195  and  _196
REMARK   83  A    between atoms: _199  and  _201
REMARK   84  A    between atoms: _201  and  _202
REMARK   85  A    between atoms: _201  and  _204
REMARK   86  A    between atoms: _204  and  _205
REMARK   87  A    between atoms: _210  and  _212
REMARK   88  A    between atoms: _212  and  _213
REMARK   89  A    between atoms: _212  and  _215
REMARK   90  A    between atoms: _215  and  _216
REMARK   91  A    between atoms: _219  and  _221
REMARK   92  A    between atoms: _221  and  _222
REMARK   93  A    between atoms: _224  and  _226
REMARK   94  A    between atoms: _226  and  _227
REMARK   95  A    between atoms: _226  and  _229
REMARK   96  A    between atoms: _229  and  _230
REMARK   97  A    between atoms: _230  and  _231
REMARK   98  A    between atoms: _234  and  _236
REMARK   99  A    between atoms: _236  and  _237
REMARK  100  A    between atoms: _236  and  _239
REMARK  101  A    between atoms: _239  and  _240
REMARK  102  A    between atoms: _242  and  _244
REMARK  103  A    between atoms: _244  and  _245
REMARK  104  A    between atoms: _244  and  _247
REMARK  105  A    between atoms: _247  and  _248
REMARK  106  A    between atoms: _251  and  _253
REMARK  107  A    between atoms: _253  and  _254
REMARK  108  A    between atoms: _253  and  _256
REMARK  109  A    between atoms: _256  and  _257
REMARK  110  A    between atoms: _257  and  _258
REMARK  111  A    between atoms: _260  and  _262
REMARK  112  A    between atoms: _262  and  _263
REMARK  113  A    between atoms: _266  and  _268
REMARK  114  A    between atoms: _268  and  _269
REMARK  115  A    between atoms: _272  and  _274
REMARK  116  A    between atoms: _274  and  _275
REMARK  117  A    between atoms: _274  and  _277
REMARK  118  A    between atoms: _277  and  _278
REMARK  119  A    between atoms: _281  and  _283
REMARK  120  A    between atoms: _283  and  _284
REMARK  121  A    between atoms: _287  and  _289
REMARK  122  A    between atoms: _289  and  _290
REMARK  123  A    between atoms: _293  and  _295
REMARK  124  A    between atoms: _295  and  _296
REMARK  125  A    between atoms: _298  and  _300
REMARK  126  A    between atoms: _300  and  _301
REMARK  127  A    between atoms: _300  and  _303
REMARK  128  A    between atoms: _303  and  _304
REMARK  129  A    between atoms: _309  and  _311
REMARK  130  A    between atoms: _311  and  _312
REMARK  131  A    between atoms: _311  and  _314
REMARK  132  A    between atoms: _314  and  _315
REMARK  133  A    between atoms: _315  and  _316
REMARK  134  A    between atoms: _319  and  _321
REMARK  135  A    between atoms: _321  and  _322
REMARK  136  A    between atoms: _321  and  _324
REMARK  137  A    between atoms: _324  and  _325
REMARK  138  A    between atoms: _328  and  _330
REMARK  139  A    between atoms: _330  and  _331
REMARK  140  A    between atoms: _330  and  _333
REMARK  141  A    between atoms: _333  and  _334
REMARK  142  A    between atoms: _334  and  _335
REMARK  143  A    between atoms: _335  and  _336
REMARK  144  A    between atoms: _345  and  _347
REMARK  145  A    between atoms: _347  and  _348
REMARK  146  A    between atoms: _351  and  _352
REMARK  147  A    between atoms: _357  and  _359
REMARK  148  A    between atoms: _359  and  _360
REMARK  149  A    between atoms: _359  and  _362
REMARK  150  A    between atoms: _362  and  _363
REMARK  151  A    between atoms: _363  and  _364
REMARK  152  A    between atoms: _366  and  _368
REMARK  153  A    between atoms: _368  and  _369
REMARK  154  A    between atoms: _368  and  _371
REMARK  155  A    between atoms: _371  and  _372
REMARK  156  A    between atoms: _372  and  _373
REMARK  157  A    between atoms: _375  and  _377
REMARK  158  A    between atoms: _377  and  _378
REMARK  159  A    between atoms: _377  and  _380
REMARK  160  A    between atoms: _380  and  _381
REMARK  161  A    between atoms: _386  and  _388
REMARK  162  A    between atoms: _388  and  _389
REMARK  163  A    between atoms: _388  and  _391
REMARK  164  A    between atoms: _391  and  _392
REMARK  165  A    between atoms: _395  and  _397
REMARK  166  A    between atoms: _397  and  _398
REMARK  167  A    between atoms: _397  and  _400
REMARK  168  A    between atoms: _400  and  _401
REMARK  169  A    between atoms: _403  and  _405
REMARK  170  A    between atoms: _405  and  _406
REMARK  171  A    between atoms: _405  and  _408
REMARK  172  A    between atoms: _408  and  _409
REMARK  173  A    between atoms: _409  and  _410
REMARK  174  A    between atoms: _410  and  _411
REMARK  175  A    between atoms: _411  and  _412
REMARK  176  A    between atoms: _416  and  _418
REMARK  177  A    between atoms: _418  and  _419
REMARK  178  A    between atoms: _418  and  _421
REMARK  179  A    between atoms: _421  and  _422
REMARK  180  A    between atoms: _425  and  _427
REMARK  181  A    between atoms: _427  and  _428
REMARK  182  A    between atoms: _427  and  _430
REMARK  183  A    between atoms: _430  and  _431
REMARK  184  A    between atoms: _431  and  _432
REMARK  185  A    between atoms: _435  and  _437
REMARK  186  A    between atoms: _437  and  _438
REMARK  187  A    between atoms: _441  and  _443
REMARK  188  A    between atoms: _443  and  _444
REMARK  189  A    between atoms: _443  and  _446
REMARK  190  A    between atoms: _449  and  _451
REMARK  191  A    between atoms: _451  and  _452
REMARK  192  A    between atoms: _451  and  _454
REMARK  193  A    between atoms: _454  and  _455
REMARK  194  A    between atoms: _457  and  _459
REMARK  195  A    between atoms: _459  and  _460
REMARK  196  A    between atoms: _462  and  _464
REMARK  197  A    between atoms: _464  and  _465
REMARK  198  A    between atoms: _464  and  _467
REMARK  199  A    between atoms: _467  and  _468
REMARK  200  A    between atoms: _473  and  _475
REMARK  201  A    between atoms: _475  and  _476
REMARK  202  A    between atoms: _475  and  _478
REMARK  203  A    between atoms: _478  and  _479
REMARK  204  A    between atoms: _484  and  _485
REMARK  205  A    between atoms: _487  and  _489
REMARK  206  A    between atoms: _489  and  _490
REMARK  207  A    between atoms: _489  and  _492
REMARK  208  A    between atoms: _494  and  _496
REMARK  209  A    between atoms: _496  and  _497
REMARK  210  A    between atoms: _496  and  _499
REMARK  211  A    between atoms: _499  and  _500
REMARK  212  A    between atoms: _503  and  _505
REMARK  213  A    between atoms: _505  and  _506
REMARK  214  A    between atoms: _505  and  _508
REMARK  215  A    between atoms: _508  and  _509
REMARK  216  A    between atoms: _512  and  _514
REMARK  217  A    between atoms: _514  and  _515
REMARK  218  A    between atoms: _514  and  _517
REMARK  219  A    between atoms: _517  and  _518
REMARK  220  A    between atoms: _518  and  _519
REMARK  221  A    between atoms: _519  and  _520
REMARK  222  A    between atoms: _520  and  _521
REMARK  223  A    between atoms: _525  and  _527
REMARK  224  A    between atoms: _527  and  _528
REMARK  225  A    between atoms: _527  and  _530
REMARK  226  A    between atoms: _530  and  _531
REMARK  227  A    between atoms: _531  and  _532
REMARK  228  A    between atoms: _532  and  _533
REMARK  229  A    between atoms: _533  and  _534
REMARK  230  A    between atoms: _538  and  _540
REMARK  231  A    between atoms: _540  and  _541
REMARK  232  A    between atoms: _540  and  _543
REMARK  233  A    between atoms: _543  and  _544
REMARK  234  A    between atoms: _544  and  _545
REMARK  235  A    between atoms: _545  and  _546
REMARK  236  A    between atoms: _555  and  _557
REMARK  237  A    between atoms: _557  and  _558
REMARK  238  A    between atoms: _557  and  _560
REMARK  239  A    between atoms: _560  and  _561
REMARK  240  A    between atoms: _564  and  _566
REMARK  241  A    between atoms: _566  and  _567
REMARK  242  A    between atoms: _570  and  _572
REMARK  243  A    between atoms: _572  and  _573
REMARK  244  A    between atoms: _572  and  _575
REMARK  245  A    between atoms: _575  and  _576
REMARK  246  A    between atoms: _576  and  _577
REMARK                            x       y       z     vdW  Elec       q    Type
REMARK                         _______ _______ _______ _____ _____    ______ ____
ROOT
ATOM      1  C   ALA A   5      39.359  -2.158 -13.555  0.00  0.00    +0.241 C 
ATOM      2  N   LEU A   6      39.035  -1.891 -12.297  0.00  0.00    -0.297 N 
ATOM      3  H   LEU A   6      39.192  -2.618 -11.570  0.00  0.00    +0.150 HD
ATOM      4  O   ALA A   5      39.147  -1.371 -14.476  0.00  0.00    -0.273 OA
ENDROOT
BRANCH   1   5
ATOM      5  CA  ALA A   5      40.017  -3.500 -13.817  0.00  0.00    +0.149 C 
ATOM      6  CB  ALA A   5      38.976  -4.590 -13.864  0.00  0.00    +0.031 C 
BRANCH   5   8
ATOM      7  C   ALA A   4      42.095  -3.029 -12.627  0.00  0.00    +0.241 C 
ATOM      8  N   ALA A   5      41.031  -3.806 -12.811  0.00  0.00    -0.297 N 
ATOM      9  H   ALA A   5      40.918  -4.656 -12.222  0.00  0.00    +0.150 HD
ATOM     10  O   ALA A   4      42.297  -1.995 -13.270  0.00  0.00    -0.273 OA
BRANCH   7  11
ATOM     11  CA  ALA A   4      43.069  -3.468 -11.552  0.00  0.00    +0.149 C 
ATOM     12  CB  ALA A   4      43.948  -4.582 -12.071  0.00  0.00    +0.031 C 
BRANCH  11  15
ATOM     13  C   MET A   3      41.714  -3.031  -9.573  0.00  0.00    +0.241 C 
ATOM     14  O   MET A   3      41.707  -1.849  -9.787  0.00  0.00    -0.273 OA
ATOM     15  N   ALA A   4      42.368  -3.891 -10.340  0.00  0.00    -0.297 N 
ATOM     16  H   ALA A   4      42.383  -4.896 -10.072  0.00  0.00    +0.150 HD
BRANCH  13  17
ATOM     17  CA  MET A   3      40.915  -3.590  -8.398  0.00  0.00    +0.149 C 
BRANCH  17  19
ATOM     18  C   LEU A   2      39.450  -5.069  -9.635  0.00  0.00    +0.241 C 
ATOM     19  N   MET A   3      40.392  -4.917  -8.716  0.00  0.00    -0.297 N 
ATOM     20  H   MET A   3      40.763  -5.750  -8.216  0.00  0.00    +0.150 HD
ATOM     21  O   LEU A   2      38.929  -4.112 -10.222  0.00  0.00    -0.273 OA
BRANCH  18  22
ATOM     22  CA  LEU A   2      38.993  -6.504  -9.913  0.00  0.00    +0.149 C 
BRANCH  22  24
ATOM     23  C   SER A   1      41.066  -7.461 -10.733  0.00  0.00    +0.241 C 
ATOM     24  N   LEU A   2      40.096  -7.465  -9.822  0.00  0.00    -0.297 N 
ATOM     25  H   LEU A   2      40.121  -8.153  -9.042  0.00  0.00    +0.150 HD
ATOM     26  O   SER A   1      41.057  -6.684 -11.677  0.00  0.00    -0.274 OA
BRANCH  23  27
ATOM     27  CA  SER A   1      42.197  -8.473 -10.590  0.00  0.00    +0.174 C 
BRANCH  27  28
ATOM     28  N   SER A   1      42.712  -8.596  -9.231  0.00  0.00    -0.236 NA
ATOM     29  H   SER A   1      42.465  -9.441  -8.678  0.00  0.00    +0.142 HD
ENDBRANCH  27  28
BRANCH  27  30
ATOM     30  CB  SER A   1      41.737  -9.834 -11.111  0.00  0.00    +0.163 C 
BRANCH  30  31
ATOM     31  OG  SER A   1      41.294  -9.756 -12.457  0.00  0.00    -0.380 OA
ATOM     32  H   SER A   1      41.005 -10.653 -12.760  0.00  0.00    +0.211 HD
ENDBRANCH  30  31
ENDBRANCH  27  30
ENDBRANCH  23  27
ENDBRANCH  22  24
BRANCH  22  33
ATOM     33  CB  LEU A   2      37.866  -6.861  -8.949  0.00  0.00    +0.029 C 
BRANCH  33  34
ATOM     34  CG  LEU A   2      36.757  -5.825  -8.811  0.00  0.00    +0.002 C 
ATOM     35  CD2 LEU A   2      35.747  -6.250  -7.742  0.00  0.00    +0.000 C 
ATOM     36  CD1 LEU A   2      36.061  -5.631 -10.142  0.00  0.00    +0.000 C 
ENDBRANCH  33  34
ENDBRANCH  22  33
ENDBRANCH  18  22
ENDBRANCH  17  19
BRANCH  17  37
ATOM     37  CB  MET A   3      41.758  -3.613  -7.127  0.00  0.00    +0.041 C 
BRANCH  37  38
ATOM     38  CG  MET A   3      40.931  -3.906  -5.857  0.00  0.00    +0.060 C 
BRANCH  38  39
ATOM     39  SD  MET A   3      39.752  -2.648  -5.523  0.00  0.00    -0.139 S 
ATOM     40  CE  MET A   3      40.867  -1.360  -4.993  0.00  0.00    +0.069 C 
ENDBRANCH  38  39
ENDBRANCH  37  38
ENDBRANCH  17  37
ENDBRANCH  13  17
ENDBRANCH  11  15
ENDBRANCH   7  11
ENDBRANCH   5   8
ENDBRANCH   1   5
BRANCH   2  41
ATOM     41  CA  LEU A   6      38.463  -0.602 -11.902  0.00  0.00    +0.149 C 
BRANCH  41  42
ATOM     42  C   LEU A   6      39.485   0.536 -12.055  0.00  0.00    +0.241 C 
ATOM     43  N   ALA A   7      40.751   0.236 -11.758  0.00  0.00    -0.297 N 
ATOM     44  H   ALA A   7      40.972  -0.733 -11.451  0.00  0.00    +0.150 HD
ATOM     45  O   LEU A   6      39.126   1.651 -12.427  0.00  0.00    -0.273 OA
BRANCH  43  46
ATOM     46  CA  ALA A   7      41.841   1.205 -11.844  0.00  0.00    +0.149 C 
ATOM     47  CB  ALA A   7      43.083   0.668 -11.139  0.00  0.00    +0.031 C 
BRANCH  46  48
ATOM     48  C   ALA A   7      42.172   1.548 -13.304  0.00  0.00    +0.241 C 
ATOM     49  O   ALA A   7      42.562   2.665 -13.614  0.00  0.00    -0.273 OA
ATOM     50  N   ALA A   8      42.013   0.578 -14.192  0.00  0.00    -0.297 N 
ATOM     51  H   ALA A   8      41.667  -0.349 -13.871  0.00  0.00    +0.150 HD
BRANCH  50  52
ATOM     52  CA  ALA A   8      42.310   0.773 -15.607  0.00  0.00    +0.149 C 
ATOM     53  CB  ALA A   8      42.533  -0.561 -16.304  0.00  0.00    +0.031 C 
BRANCH  52  54
ATOM     54  C   ALA A   8      41.182   1.553 -16.267  0.00  0.00    +0.241 C 
ATOM     55  N   GLY A   9      39.981   1.492 -15.693  0.00  0.00    -0.295 N 
ATOM     56  H   GLY A   9      39.841   0.853 -14.884  0.00  0.00    +0.150 HD
ATOM     57  O   ALA A   8      41.410   2.223 -17.264  0.00  0.00    -0.273 OA
BRANCH  55  58
ATOM     58  CA  GLY A   9      38.857   2.292 -16.163  0.00  0.00    +0.176 C 
BRANCH  58  59
ATOM     59  C   GLY A   9      38.067   1.675 -17.313  0.00  0.00    +0.243 C 
ATOM     60  N   HIS A  10      37.833   0.361 -17.208  0.00  0.00    -0.298 N 
ATOM     61  H   HIS A  10      38.211  -0.112 -16.363  0.00  0.00    +0.150 HD
ATOM     62  O   GLY A   9      37.666   2.385 -18.238  0.00  0.00    -0.273 OA
BRANCH  60  63
ATOM     63  CA  HIS A  10      37.094  -0.490 -18.166  0.00  0.00    +0.143 C 
BRANCH  63  64
ATOM     64  C   HIS A  10      38.063  -1.407 -18.904  0.00  0.00    +0.227 C 
ATOM     65  O   HIS A  10      39.286  -1.253 -18.816  0.00  0.00    -0.286 OA
ENDBRANCH  63  64
BRANCH  63  66
ATOM     66  CB  HIS A  10      36.192   0.289 -19.157  0.00  0.00    +0.075 C 
BRANCH  66  67
ATOM     67  CG  HIS A  10      34.783  -0.224 -19.242  0.00  0.00    +0.082 A 
ATOM     68  CD2 HIS A  10      34.022  -0.909 -18.353  0.00  0.00    +0.115 A 
ATOM     69  NE2 HIS A  10      32.796  -1.118 -18.941  0.00  0.00    -0.221 NA
ATOM     70  CE1 HIS A  10      32.799  -0.570 -20.143  0.00  0.00    +0.199 A 
ATOM     71  ND1 HIS A  10      33.985  -0.021 -20.349  0.00  0.00    -0.227 NA
ENDBRANCH  66  67
ENDBRANCH  63  66
ENDBRANCH  60  63
ENDBRANCH  58  59
ENDBRANCH  55  58
ENDBRANCH  52  54
ENDBRANCH  50  52
ENDBRANCH  46  48
ENDBRANCH  43  46
ENDBRANCH  41  42
BRANCH  41  72
ATOM     72  CB  LEU A   6      37.941  -0.666 -10.455  0.00  0.00    +0.029 C 
BRANCH  72  73
ATOM     73  CG  LEU A   6      36.797  -1.665 -10.201  0.00  0.00    +0.002 C 
ATOM     74  CD2 LEU A   6      36.704  -2.074  -8.700  0.00  0.00    +0.000 C 
ATOM     75  CD1 LEU A   6      35.470  -1.104 -10.684  0.00  0.00    +0.000 C 
ENDBRANCH  72  73
ENDBRANCH  41  72
ENDBRANCH   2  41
TORSDOF 31
REMARK  Name = ../refined-set-2016/3cct/3cct_pocket.pdb
REMARK  246 active torsions:
REMARK  status: ('A' for Active; 'I' for Inactive)
REMARK    1  A    between atoms: _1  and  _3
REMARK    2  A    between atoms: _3  and  _4
REMARK    3  A    between atoms: _3  and  _6
REMARK    4  A    between atoms: _6  and  _7
REMARK    5  A    between atoms: _10  and  _12
REMARK    6  A    between atoms: _12  and  _13
REMARK    7  A    between atoms: _12  and  _15
REMARK    8  A    between atoms: _15  and  _16
REMARK    9  A    between atoms: _16  and  _17
REMARK   10  A    between atoms: _20  and  _22
REMARK   11  A    between atoms: _22  and  _23
REMARK   12  A    between atoms: _25  and  _27
REMARK   13  A    between atoms: _27  and  _28
REMARK   14  A    between atoms: _27  and  _30
REMARK   15  A    between atoms: _32  and  _34
REMARK   16  A    between atoms: _34  and  _35
REMARK   17  A    between atoms: _34  and  _37
REMARK   18  A    between atoms: _37  and  _38
REMARK   19  A    between atoms: _41  and  _43
REMARK   20  A    between atoms: _43  and  _44
REMARK   21  A    between atoms: _43  and  _46
REMARK   22  A    between atoms: _49  and  _51
REMARK   23  A    between atoms: _51  and  _52
REMARK   24  A    between atoms: _55  and  _57
REMARK   25  A    between atoms: _57  and  _58
REMARK   26  A    between atoms: _57  and  _60
REMARK   27  A    between atoms: _60  and  _61
REMARK   28  A    between atoms: _63  and  _65
REMARK   29  A    between atoms: _65  and  _66
REMARK   30  A    between atoms: _65  and  _68
REMARK   31  A    between atoms: _68  and  _69
REMARK   32  A    between atoms: _72  and  _74
REMARK   33  A    between atoms: _74  and  _75
REMARK   34  A    between atoms: _74  and  _77
REMARK   35  A    between atoms: _77  and  _78
REMARK   36  A    between atoms: _83  and  _85
REMARK   37  A    between atoms: _85  and  _86
REMARK   38  A    between atoms: _85  and  _88
REMARK   39  A    between atoms: _88  and  _89
REMARK   40  A    between atoms: _89  and  _90
REMARK   41  A    between atoms: _90  and  _91
REMARK   42  A    between atoms: _100  and  _102
REMARK   43  A    between atoms: _102  and  _103
REMARK   44  A    between atoms: _105  and  _107
REMARK   45  A    between atoms: _107  and  _108
REMARK   46  A    between atoms: _107  and  _110
REMARK   47  A    between atoms: _113  and  _115
REMARK   48  A    between atoms: _115  and  _116
REMARK   49  A    between atoms: _115  and  _118
REMARK   50  A    between atoms: _118  and  _119
REMARK   51  A    between atoms: _122  and  _124
REMARK   52  A    between atoms: _124  and  _125
REMARK   53  A    between atoms: _124  and  _127
REMARK   54  A    between atoms: _127  and  _128
REMARK   55  A    between atoms: _128  and  _129
REMARK   56  A    between atoms: _129  and  _130
REMARK   57  A    between atoms: _130  and  _131
REMARK   58  A    between atoms: _135  and  _137
REMARK   59  A    between atoms: _137  and  _138
REMARK   60  A    between atoms: _137  and  _140
REMARK   61  A    between atoms: _140  and  _141
REMARK   62  A    between atoms: _141  and  _142
REMARK   63  A    between atoms: _142  and  _143
REMARK   64  A    between atoms: _143  and  _144
REMARK   65  A    between atoms: _148  and  _150
REMARK   66  A    between atoms: _150  and  _151
REMARK   67  A    between atoms: _150  and  _153
REMARK   68  A    between atoms: _153  and  _154
REMARK   69  A    between atoms: _159  and  _161
REMARK   70  A    between atoms: _161  and  _162
REMARK   71  A    between atoms: _161  and  _164
REMARK   72  A    between atoms: _164  and  _165
REMARK   73  A    between atoms: _170  and  _172
REMARK   74  A    between atoms: _172  and  _173
REMARK   75  A    between atoms: _176  and  _178
REMARK   76  A    between atoms: _178  and  _179
REMARK   77  A    between atoms: _178  and  _181
REMARK   78  A    between atoms: _181  and  _182
REMARK   79  A    between atoms: _187  and  _189
REMARK   80  A    between atoms: _189  and  _190
REMARK   81  A    between atoms: _193  and  _195
REMARK   82  A    between atoms: _195  and  _196
REMARK   83  A    between atoms: _199  and  _201
REMARK   84  A    between atoms: _201  and  _202
REMARK   85  A    between atoms: _201  and  _204
REMARK   86  A    between atoms: _204  and  _205
REMARK   87  A    between atoms: _210  and  _212
REMARK   88  A    between atoms: _212  and  _213
REMARK   89  A    between atoms: _212  and  _215
REMARK   90  A    between atoms: _215  and  _216
REMARK   91  A    between atoms: _219  and  _221
REMARK   92  A    between atoms: _221  and  _222
REMARK   93  A    between atoms: _224  and  _226
REMARK   94  A    between atoms: _226  and  _227
REMARK   95  A    between atoms: _226  and  _229
REMARK   96  A    between atoms: _229  and  _230
REMARK   97  A    between atoms: _230  and  _231
REMARK   98  A    between atoms: _234  and  _236
REMARK   99  A    between atoms: _236  and  _237
REMARK  100  A    between atoms: _236  and  _239
REMARK  101  A    between atoms: _239  and  _240
REMARK  102  A    between atoms: _242  and  _244
REMARK  103  A    between atoms: _244  and  _245
REMARK  104  A    between atoms: _244  and  _247
REMARK  105  A    between atoms: _247  and  _248
REMARK  106  A    between atoms: _251  and  _253
REMARK  107  A    between atoms: _253  and  _254
REMARK  108  A    between atoms: _253  and  _256
REMARK  109  A    between atoms: _256  and  _257
REMARK  110  A    between atoms: _257  and  _258
REMARK  111  A    between atoms: _260  and  _262
REMARK  112  A    between atoms: _262  and  _263
REMARK  113  A    between atoms: _266  and  _268
REMARK  114  A    between atoms: _268  and  _269
REMARK  115  A    between atoms: _272  and  _274
REMARK  116  A    between atoms: _274  and  _275
REMARK  117  A    between atoms: _274  and  _277
REMARK  118  A    between atoms: _277  and  _278
REMARK  119  A    between atoms: _281  and  _283
REMARK  120  A    between atoms: _283  and  _284
REMARK  121  A    between atoms: _287  and  _289
REMARK  122  A    between atoms: _289  and  _290
REMARK  123  A    between atoms: _293  and  _295
REMARK  124  A    between atoms: _295  and  _296
REMARK  125  A    between atoms: _298  and  _300
REMARK  126  A    between atoms: _300  and  _301
REMARK  127  A    between atoms: _300  and  _303
REMARK  128  A    between atoms: _303  and  _304
REMARK  129  A    between atoms: _309  and  _311
REMARK  130  A    between atoms: _311  and  _312
REMARK  131  A    between atoms: _311  and  _314
REMARK  132  A    between atoms: _314  and  _315
REMARK  133  A    between atoms: _315  and  _316
REMARK  134  A    between atoms: _319  and  _321
REMARK  135  A    between atoms: _321  and  _322
REMARK  136  A    between atoms: _321  and  _324
REMARK  137  A    between atoms: _324  and  _325
REMARK  138  A    between atoms: _328  and  _330
REMARK  139  A    between atoms: _330  and  _331
REMARK  140  A    between atoms: _330  and  _333
REMARK  141  A    between atoms: _333  and  _334
REMARK  142  A    between atoms: _334  and  _335
REMARK  143  A    between atoms: _335  and  _336
REMARK  144  A    between atoms: _345  and  _347
REMARK  145  A    between atoms: _347  and  _348
REMARK  146  A    between atoms: _351  and  _352
REMARK  147  A    between atoms: _357  and  _359
REMARK  148  A    between atoms: _359  and  _360
REMARK  149  A    between atoms: _359  and  _362
REMARK  150  A    between atoms: _362  and  _363
REMARK  151  A    between atoms: _363  and  _364
REMARK  152  A    between atoms: _366  and  _368
REMARK  153  A    between atoms: _368  and  _369
REMARK  154  A    between atoms: _368  and  _371
REMARK  155  A    between atoms: _371  and  _372
REMARK  156  A    between atoms: _372  and  _373
REMARK  157  A    between atoms: _375  and  _377
REMARK  158  A    between atoms: _377  and  _378
REMARK  159  A    between atoms: _377  and  _380
REMARK  160  A    between atoms: _380  and  _381
REMARK  161  A    between atoms: _386  and  _388
REMARK  162  A    between atoms: _388  and  _389
REMARK  163  A    between atoms: _388  and  _391
REMARK  164  A    between atoms: _391  and  _392
REMARK  165  A    between atoms: _395  and  _397
REMARK  166  A    between atoms: _397  and  _398
REMARK  167  A    between atoms: _397  and  _400
REMARK  168  A    between atoms: _400  and  _401
REMARK  169  A    between atoms: _403  and  _405
REMARK  170  A    between atoms: _405  and  _406
REMARK  171  A    between atoms: _405  and  _408
REMARK  172  A    between atoms: _408  and  _409
REMARK  173  A    between atoms: _409  and  _410
REMARK  174  A    between atoms: _410  and  _411
REMARK  175  A    between atoms: _411  and  _412
REMARK  176  A    between atoms: _416  and  _418
REMARK  177  A    between atoms: _418  and  _419
REMARK  178  A    between atoms: _418  and  _421
REMARK  179  A    between atoms: _421  and  _422
REMARK  180  A    between atoms: _425  and  _427
REMARK  181  A    between atoms: _427  and  _428
REMARK  182  A    between atoms: _427  and  _430
REMARK  183  A    between atoms: _430  and  _431
REMARK  184  A    between atoms: _431  and  _432
REMARK  185  A    between atoms: _435  and  _437
REMARK  186  A    between atoms: _437  and  _438
REMARK  187  A    between atoms: _441  and  _443
REMARK  188  A    between atoms: _443  and  _444
REMARK  189  A    between atoms: _443  and  _446
REMARK  190  A    between atoms: _449  and  _451
REMARK  191  A    between atoms: _451  and  _452
REMARK  192  A    between atoms: _451  and  _454
REMARK  193  A    between atoms: _454  and  _455
REMARK  194  A    between atoms: _457  and  _459
REMARK  195  A    between atoms: _459  and  _460
REMARK  196  A    between atoms: _462  and  _464
REMARK  197  A    between atoms: _464  and  _465
REMARK  198  A    between atoms: _464  and  _467
REMARK  199  A    between atoms: _467  and  _468
REMARK  200  A    between atoms: _473  and  _475
REMARK  201  A    between atoms: _475  and  _476
REMARK  202  A    between atoms: _475  and  _478
REMARK  203  A    between atoms: _478  and  _479
REMARK  204  A    between atoms: _484  and  _485
REMARK  205  A    between atoms: _487  and  _489
REMARK  206  A    between atoms: _489  and  _490
REMARK  207  A    between atoms: _489  and  _492
REMARK  208  A    between atoms: _494  and  _496
REMARK  209  A    between atoms: _496  and  _497
REMARK  210  A    between atoms: _496  and  _499
REMARK  211  A    between atoms: _499  and  _500
REMARK  212  A    between atoms: _503  and  _505
REMARK  213  A    between atoms: _505  and  _506
REMARK  214  A    between atoms: _505  and  _508
REMARK  215  A    between atoms: _508  and  _509
REMARK  216  A    between atoms: _512  and  _514
REMARK  217  A    between atoms: _514  and  _515
REMARK  218  A    between atoms: _514  and  _517
REMARK  219  A    between atoms: _517  and  _518
REMARK  220  A    between atoms: _518  and  _519
REMARK  221  A    between atoms: _519  and  _520
REMARK  222  A    between atoms: _520  and  _521
REMARK  223  A    between atoms: _525  and  _527
REMARK  224  A    between atoms: _527  and  _528
REMARK  225  A    between atoms: _527  and  _530
REMARK  226  A    between atoms: _530  and  _531
REMARK  227  A    between atoms: _531  and  _532
REMARK  228  A    between atoms: _532  and  _533
REMARK  229  A    between atoms: _533  and  _534
REMARK  230  A    between atoms: _538  and  _540
REMARK  231  A    between atoms: _540  and  _541
REMARK  232  A    between atoms: _540  and  _543
REMARK  233  A    between atoms: _543  and  _544
REMARK  234  A    between atoms: _544  and  _545
REMARK  235  A    between atoms: _545  and  _546
REMARK  236  A    between atoms: _555  and  _557
REMARK  237  A    between atoms: _557  and  _558
REMARK  238  A    between atoms: _557  and  _560
REMARK  239  A    between atoms: _560  and  _561
REMARK  240  A    between atoms: _564  and  _566
REMARK  241  A    between atoms: _566  and  _567
REMARK  242  A    between atoms: _570  and  _572
REMARK  243  A    between atoms: _572  and  _573
REMARK  244  A    between atoms: _572  and  _575
REMARK  245  A    between atoms: _575  and  _576
REMARK  246  A    between atoms: _576  and  _577
REMARK                            x       y       z     vdW  Elec       q    Type
REMARK                         _______ _______ _______ _____ _____    ______ ____
ROOT
ATOM      1  CA  GLU A   1      34.664 -19.954 -17.162  0.00  0.00    +0.134 C 
ENDROOT
BRANCH   1   2
ATOM      2  N   GLU A   1      33.517 -19.662 -16.302  0.00  0.00    -0.239 NA
ATOM      3  H   GLU A   1      33.681 -19.523 -15.285  0.00  0.00    +0.142 HD
ENDBRANCH   1   2
BRANCH   1   4
ATOM      4  C   GLU A   1      35.500 -21.065 -16.546  0.00  0.00    +0.224 C 
ATOM      5  O   GLU A   1      35.310 -21.416 -15.379  0.00  0.00    -0.287 OA
ENDBRANCH   1   4
BRANCH   1   6
ATOM      6  CB  GLU A   1      35.539 -18.710 -17.339  0.00  0.00    +0.037 C 
BRANCH   6   7
ATOM      7  CG  GLU A   1      34.801 -17.478 -17.851  0.00  0.00    +0.116 C 
BRANCH   7   8
ATOM      8  CD  GLU A   1      34.061 -16.721 -16.756  0.00  0.00    +0.365 C 
ATOM      9  OE2 GLU A   1      34.643 -16.499 -15.663  0.00  0.00    -0.246 OA
ATOM     10  OE1 GLU A   1      32.891 -16.343 -16.998  0.00  0.00    -0.246 OA
ENDBRANCH   7   8
ENDBRANCH   6   7
ENDBRANCH   1   6
TORSDOF 5
REMARK  Name = ../refined-set-2016/3cct/3cct_pocket.pdb
REMARK  246 active torsions:
REMARK  status: ('A' for Active; 'I' for Inactive)
REMARK    1  A    between atoms: _1  and  _3
REMARK    2  A    between atoms: _3  and  _4
REMARK    3  A    between atoms: _3  and  _6
REMARK    4  A    between atoms: _6  and  _7
REMARK    5  A    between atoms: _10  and  _12
REMARK    6  A    between atoms: _12  and  _13
REMARK    7  A    between atoms: _12  and  _15
REMARK    8  A    between atoms: _15  and  _16
REMARK    9  A    between atoms: _16  and  _17
REMARK   10  A    between atoms: _20  and  _22
REMARK   11  A    between atoms: _22  and  _23
REMARK   12  A    between atoms: _25  and  _27
REMARK   13  A    between atoms: _27  and  _28
REMARK   14  A    between atoms: _27  and  _30
REMARK   15  A    between atoms: _32  and  _34
REMARK   16  A    between atoms: _34  and  _35
REMARK   17  A    between atoms: _34  and  _37
REMARK   18  A    between atoms: _37  and  _38
REMARK   19  A    between atoms: _41  and  _43
REMARK   20  A    between atoms: _43  and  _44
REMARK   21  A    between atoms: _43  and  _46
REMARK   22  A    between atoms: _49  and  _51
REMARK   23  A    between atoms: _51  and  _52
REMARK   24  A    between atoms: _55  and  _57
REMARK   25  A    between atoms: _57  and  _58
REMARK   26  A    between atoms: _57  and  _60
REMARK   27  A    between atoms: _60  and  _61
REMARK   28  A    between atoms: _63  and  _65
REMARK   29  A    between atoms: _65  and  _66
REMARK   30  A    between atoms: _65  and  _68
REMARK   31  A    between atoms: _68  and  _69
REMARK   32  A    between atoms: _72  and  _74
REMARK   33  A    between atoms: _74  and  _75
REMARK   34  A    between atoms: _74  and  _77
REMARK   35  A    between atoms: _77  and  _78
REMARK   36  A    between atoms: _83  and  _85
REMARK   37  A    between atoms: _85  and  _86
REMARK   38  A    between atoms: _85  and  _88
REMARK   39  A    between atoms: _88  and  _89
REMARK   40  A    between atoms: _89  and  _90
REMARK   41  A    between atoms: _90  and  _91
REMARK   42  A    between atoms: _100  and  _102
REMARK   43  A    between atoms: _102  and  _103
REMARK   44  A    between atoms: _105  and  _107
REMARK   45  A    between atoms: _107  and  _108
REMARK   46  A    between atoms: _107  and  _110
REMARK   47  A    between atoms: _113  and  _115
REMARK   48  A    between atoms: _115  and  _116
REMARK   49  A    between atoms: _115  and  _118
REMARK   50  A    between atoms: _118  and  _119
REMARK   51  A    between atoms: _122  and  _124
REMARK   52  A    between atoms: _124  and  _125
REMARK   53  A    between atoms: _124  and  _127
REMARK   54  A    between atoms: _127  and  _128
REMARK   55  A    between atoms: _128  and  _129
REMARK   56  A    between atoms: _129  and  _130
REMARK   57  A    between atoms: _130  and  _131
REMARK   58  A    between atoms: _135  and  _137
REMARK   59  A    between atoms: _137  and  _138
REMARK   60  A    between atoms: _137  and  _140
REMARK   61  A    between atoms: _140  and  _141
REMARK   62  A    between atoms: _141  and  _142
REMARK   63  A    between atoms: _142  and  _143
REMARK   64  A    between atoms: _143  and  _144
REMARK   65  A    between atoms: _148  and  _150
REMARK   66  A    between atoms: _150  and  _151
REMARK   67  A    between atoms: _150  and  _153
REMARK   68  A    between atoms: _153  and  _154
REMARK   69  A    between atoms: _159  and  _161
REMARK   70  A    between atoms: _161  and  _162
REMARK   71  A    between atoms: _161  and  _164
REMARK   72  A    between atoms: _164  and  _165
REMARK   73  A    between atoms: _170  and  _172
REMARK   74  A    between atoms: _172  and  _173
REMARK   75  A    between atoms: _176  and  _178
REMARK   76  A    between atoms: _178  and  _179
REMARK   77  A    between atoms: _178  and  _181
REMARK   78  A    between atoms: _181  and  _182
REMARK   79  A    between atoms: _187  and  _189
REMARK   80  A    between atoms: _189  and  _190
REMARK   81  A    between atoms: _193  and  _195
REMARK   82  A    between atoms: _195  and  _196
REMARK   83  A    between atoms: _199  and  _201
REMARK   84  A    between atoms: _201  and  _202
REMARK   85  A    between atoms: _201  and  _204
REMARK   86  A    between atoms: _204  and  _205
REMARK   87  A    between atoms: _210  and  _212
REMARK   88  A    between atoms: _212  and  _213
REMARK   89  A    between atoms: _212  and  _215
REMARK   90  A    between atoms: _215  and  _216
REMARK   91  A    between atoms: _219  and  _221
REMARK   92  A    between atoms: _221  and  _222
REMARK   93  A    between atoms: _224  and  _226
REMARK   94  A    between atoms: _226  and  _227
REMARK   95  A    between atoms: _226  and  _229
REMARK   96  A    between atoms: _229  and  _230
REMARK   97  A    between atoms: _230  and  _231
REMARK   98  A    between atoms: _234  and  _236
REMARK   99  A    between atoms: _236  and  _237
REMARK  100  A    between atoms: _236  and  _239
REMARK  101  A    between atoms: _239  and  _240
REMARK  102  A    between atoms: _242  and  _244
REMARK  103  A    between atoms: _244  and  _245
REMARK  104  A    between atoms: _244  and  _247
REMARK  105  A    between atoms: _247  and  _248
REMARK  106  A    between atoms: _251  and  _253
REMARK  107  A    between atoms: _253  and  _254
REMARK  108  A    between atoms: _253  and  _256
REMARK  109  A    between atoms: _256  and  _257
REMARK  110  A    between atoms: _257  and  _258
REMARK  111  A    between atoms: _260  and  _262
REMARK  112  A    between atoms: _262  and  _263
REMARK  113  A    between atoms: _266  and  _268
REMARK  114  A    between atoms: _268  and  _269
REMARK  115  A    between atoms: _272  and  _274
REMARK  116  A    between atoms: _274  and  _275
REMARK  117  A    between atoms: _274  and  _277
REMARK  118  A    between atoms: _277  and  _278
REMARK  119  A    between atoms: _281  and  _283
REMARK  120  A    between atoms: _283  and  _284
REMARK  121  A    between atoms: _287  and  _289
REMARK  122  A    between atoms: _289  and  _290
REMARK  123  A    between atoms: _293  and  _295
REMARK  124  A    between atoms: _295  and  _296
REMARK  125  A    between atoms: _298  and  _300
REMARK  126  A    between atoms: _300  and  _301
REMARK  127  A    between atoms: _300  and  _303
REMARK  128  A    between atoms: _303  and  _304
REMARK  129  A    between atoms: _309  and  _311
REMARK  130  A    between atoms: _311  and  _312
REMARK  131  A    between atoms: _311  and  _314
REMARK  132  A    between atoms: _314  and  _315
REMARK  133  A    between atoms: _315  and  _316
REMARK  134  A    between atoms: _319  and  _321
REMARK  135  A    between atoms: _321  and  _322
REMARK  136  A    between atoms: _321  and  _324
REMARK  137  A    between atoms: _324  and  _325
REMARK  138  A    between atoms: _328  and  _330
REMARK  139  A    between atoms: _330  and  _331
REMARK  140  A    between atoms: _330  and  _333
REMARK  141  A    between atoms: _333  and  _334
REMARK  142  A    between atoms: _334  and  _335
REMARK  143  A    between atoms: _335  and  _336
REMARK  144  A    between atoms: _345  and  _347
REMARK  145  A    between atoms: _347  and  _348
REMARK  146  A    between atoms: _351  and  _352
REMARK  147  A    between atoms: _357  and  _359
REMARK  148  A    between atoms: _359  and  _360
REMARK  149  A    between atoms: _359  and  _362
REMARK  150  A    between atoms: _362  and  _363
REMARK  151  A    between atoms: _363  and  _364
REMARK  152  A    between atoms: _366  and  _368
REMARK  153  A    between atoms: _368  and  _369
REMARK  154  A    between atoms: _368  and  _371
REMARK  155  A    between atoms: _371  and  _372
REMARK  156  A    between atoms: _372  and  _373
REMARK  157  A    between atoms: _375  and  _377
REMARK  158  A    between atoms: _377  and  _378
REMARK  159  A    between atoms: _377  and  _380
REMARK  160  A    between atoms: _380  and  _381
REMARK  161  A    between atoms: _386  and  _388
REMARK  162  A    between atoms: _388  and  _389
REMARK  163  A    between atoms: _388  and  _391
REMARK  164  A    between atoms: _391  and  _392
REMARK  165  A    between atoms: _395  and  _397
REMARK  166  A    between atoms: _397  and  _398
REMARK  167  A    between atoms: _397  and  _400
REMARK  168  A    between atoms: _400  and  _401
REMARK  169  A    between atoms: _403  and  _405
REMARK  170  A    between atoms: _405  and  _406
REMARK  171  A    between atoms: _405  and  _408
REMARK  172  A    between atoms: _408  and  _409
REMARK  173  A    between atoms: _409  and  _410
REMARK  174  A    between atoms: _410  and  _411
REMARK  175  A    between atoms: _411  and  _412
REMARK  176  A    between atoms: _416  and  _418
REMARK  177  A    between atoms: _418  and  _419
REMARK  178  A    between atoms: _418  and  _421
REMARK  179  A    between atoms: _421  and  _422
REMARK  180  A    between atoms: _425  and  _427
REMARK  181  A    between atoms: _427  and  _428
REMARK  182  A    between atoms: _427  and  _430
REMARK  183  A    between atoms: _430  and  _431
REMARK  184  A    between atoms: _431  and  _432
REMARK  185  A    between atoms: _435  and  _437
REMARK  186  A    between atoms: _437  and  _438
REMARK  187  A    between atoms: _441  and  _443
REMARK  188  A    between atoms: _443  and  _444
REMARK  189  A    between atoms: _443  and  _446
REMARK  190  A    between atoms: _449  and  _451
REMARK  191  A    between atoms: _451  and  _452
REMARK  192  A    between atoms: _451  and  _454
REMARK  193  A    between atoms: _454  and  _455
REMARK  194  A    between atoms: _457  and  _459
REMARK  195  A    between atoms: _459  and  _460
REMARK  196  A    between atoms: _462  and  _464
REMARK  197  A    between atoms: _464  and  _465
REMARK  198  A    between atoms: _464  and  _467
REMARK  199  A    between atoms: _467  and  _468
REMARK  200  A    between atoms: _473  and  _475
REMARK  201  A    between atoms: _475  and  _476
REMARK  202  A    between atoms: _475  and  _478
REMARK  203  A    between atoms: _478  and  _479
REMARK  204  A    between atoms: _484  and  _485
REMARK  205  A    between atoms: _487  and  _489
REMARK  206  A    between atoms: _489  and  _490
REMARK  207  A    between atoms: _489  and  _492
REMARK  208  A    between atoms: _494  and  _496
REMARK  209  A    between atoms: _496  and  _497
REMARK  210  A    between atoms: _496  and  _499
REMARK  211  A    between atoms: _499  and  _500
REMARK  212  A    between atoms: _503  and  _505
REMARK  213  A    between atoms: _505  and  _506
REMARK  214  A    between atoms: _505  and  _508
REMARK  215  A    between atoms: _508  and  _509
REMARK  216  A    between atoms: _512  and  _514
REMARK  217  A    between atoms: _514  and  _515
REMARK  218  A    between atoms: _514  and  _517
REMARK  219  A    between atoms: _517  and  _518
REMARK  220  A    between atoms: _518  and  _519
REMARK  221  A    between atoms: _519  and  _520
REMARK  222  A    between atoms: _520  and  _521
REMARK  223  A    between atoms: _525  and  _527
REMARK  224  A    between atoms: _527  and  _528
REMARK  225  A    between atoms: _527  and  _530
REMARK  226  A    between atoms: _530  and  _531
REMARK  227  A    between atoms: _531  and  _532
REMARK  228  A    between atoms: _532  and  _533
REMARK  229  A    between atoms: _533  and  _534
REMARK  230  A    between atoms: _538  and  _540
REMARK  231  A    between atoms: _540  and  _541
REMARK  232  A    between atoms: _540  and  _543
REMARK  233  A    between atoms: _543  and  _544
REMARK  234  A    between atoms: _544  and  _545
REMARK  235  A    between atoms: _545  and  _546
REMARK  236  A    between atoms: _555  and  _557
REMARK  237  A    between atoms: _557  and  _558
REMARK  238  A    between atoms: _557  and  _560
REMARK  239  A    between atoms: _560  and  _561
REMARK  240  A    between atoms: _564  and  _566
REMARK  241  A    between atoms: _566  and  _567
REMARK  242  A    between atoms: _570  and  _572
REMARK  243  A    between atoms: _572  and  _573
REMARK  244  A    between atoms: _572  and  _575
REMARK  245  A    between atoms: _575  and  _576
REMARK  246  A    between atoms: _576  and  _577
REMARK                            x       y       z     vdW  Elec       q    Type
REMARK                         _______ _______ _______ _____ _____    ______ ____
ROOT
ATOM      1  CA  ARG A   2      25.974   2.041  -8.120  0.00  0.00    +0.149 C 
ENDROOT
BRANCH   1   4
ATOM      2  C   THR A   1      23.846   0.996  -7.478  0.00  0.00    +0.241 C 
ATOM      3  O   THR A   1      24.257  -0.160  -7.497  0.00  0.00    -0.274 OA
ATOM      4  N   ARG A   2      24.568   2.064  -7.798  0.00  0.00    -0.297 N 
ATOM      5  H   ARG A   2      24.084   2.984  -7.818  0.00  0.00    +0.150 HD
BRANCH   2   6
ATOM      6  CA  THR A   1      22.446   1.335  -7.033  0.00  0.00    +0.172 C 
BRANCH   6   7
ATOM      7  N   THR A   1      21.524   0.207  -7.065  0.00  0.00    -0.236 NA
ATOM      8  H   THR A   1      21.814  -0.699  -6.644  0.00  0.00    +0.142 HD
ENDBRANCH   6   7
BRANCH   6   9
ATOM      9  CB  THR A   1      22.555   1.946  -5.624  0.00  0.00    +0.135 C 
ATOM     10  CG2 THR A   1      21.191   2.241  -5.035  0.00  0.00    +0.034 C 
BRANCH   9  11
ATOM     11  OG1 THR A   1      23.153   0.999  -4.736  0.00  0.00    -0.383 OA
ATOM     12  HG1 THR A   1      23.222   1.395  -3.831  0.00  0.00    +0.210 HD
ENDBRANCH   9  11
ENDBRANCH   6   9
ENDBRANCH   2   6
ENDBRANCH   1   4
BRANCH   1  13
ATOM     13  C   ARG A   2      26.586   3.325  -7.570  0.00  0.00    +0.241 C 
ATOM     14  N   GLY A   3      27.697   3.189  -6.852  0.00  0.00    -0.295 N 
ATOM     15  H   GLY A   3      28.159   2.259  -6.808  0.00  0.00    +0.150 HD
ATOM     16  O   ARG A   2      26.067   4.416  -7.803  0.00  0.00    -0.273 OA
BRANCH  14  17
ATOM     17  CA  GLY A   3      28.280   4.298  -6.131  0.00  0.00    +0.176 C 
BRANCH  17  18
ATOM     18  C   GLY A   3      29.726   4.502  -6.527  0.00  0.00    +0.246 C 
ATOM     19  O   GLY A   3      30.612   4.103  -5.773  0.00  0.00    -0.273 OA
ATOM     20  N   PRO A   4      29.963   5.095  -7.704  0.00  0.00    -0.273 N 
ATOM     21  CA  PRO A   4      31.321   5.411  -8.162  0.00  0.00    +0.140 C 
ATOM     22  CB  PRO A   4      31.094   5.968  -9.572  0.00  0.00    +0.030 C 
ATOM     23  CG  PRO A   4      29.726   6.503  -9.518  0.00  0.00    +0.024 C 
ATOM     24  CD  PRO A   4      28.962   5.497  -8.707  0.00  0.00    +0.094 C 
BRANCH  21  25
ATOM     25  C   PRO A   4      31.996   6.480  -7.322  0.00  0.00    +0.227 C 
ATOM     26  O   PRO A   4      31.325   7.284  -6.688  0.00  0.00    -0.286 OA
ENDBRANCH  21  25
ENDBRANCH  17  18
ENDBRANCH  14  17
ENDBRANCH   1  13
BRANCH   1  27
ATOM     27  CB  ARG A   2      26.150   2.005  -9.616  0.00  0.00    +0.033 C 
BRANCH  27  28
ATOM     28  CG  ARG A   2      27.503   1.546 -10.057  0.00  0.00    +0.045 C 
BRANCH  28  29
ATOM     29  CD  ARG A   2      27.613   0.041 -10.135  0.00  0.00    +0.174 C 
BRANCH  29  30
ATOM     30  NE  ARG A   2      28.382  -0.485  -9.037  0.00  0.00    -0.265 N 
ATOM     31  HE  ARG A   2      28.623   0.168  -8.265  0.00  0.00    +0.259 HD
ATOM     32  CZ  ARG A   2      28.805  -1.733  -8.934  0.00  0.00    +0.342 C 
ATOM     33  NH2 ARG A   2      29.518  -2.062  -7.858  0.00  0.00    -0.292 N 
ATOM     34 HH21 ARG A   2      29.725  -1.346  -7.133  0.00  0.00    +0.255 HD
ATOM     35 HH22 ARG A   2      29.867  -3.035  -7.743  0.00  0.00    +0.255 HD
ATOM     36  NH1 ARG A   2      28.533  -2.644  -9.872  0.00  0.00    -0.292 N 
ATOM     37 HH11 ARG A   2      28.878  -3.619  -9.765  0.00  0.00    +0.255 HD
ATOM     38 HH12 ARG A   2      27.976  -2.378 -10.709  0.00  0.00    +0.255 HD
ENDBRANCH  29  30
ENDBRANCH  28  29
ENDBRANCH  27  28
ENDBRANCH   1  27
TORSDOF 13
REMARK  Name = ../refined-set-2016/3cct/3cct_pocket.pdb
REMARK  246 active torsions:
REMARK  status: ('A' for Active; 'I' for Inactive)
REMARK    1  A    between atoms: _1  and  _3
REMARK    2  A    between atoms: _3  and  _4
REMARK    3  A    between atoms: _3  and  _6
REMARK    4  A    between atoms: _6  and  _7
REMARK    5  A    between atoms: _10  and  _12
REMARK    6  A    between atoms: _12  and  _13
REMARK    7  A    between atoms: _12  and  _15
REMARK    8  A    between atoms: _15  and  _16
REMARK    9  A    between atoms: _16  and  _17
REMARK   10  A    between atoms: _20  and  _22
REMARK   11  A    between atoms: _22  and  _23
REMARK   12  A    between atoms: _25  and  _27
REMARK   13  A    between atoms: _27  and  _28
REMARK   14  A    between atoms: _27  and  _30
REMARK   15  A    between atoms: _32  and  _34
REMARK   16  A    between atoms: _34  and  _35
REMARK   17  A    between atoms: _34  and  _37
REMARK   18  A    between atoms: _37  and  _38
REMARK   19  A    between atoms: _41  and  _43
REMARK   20  A    between atoms: _43  and  _44
REMARK   21  A    between atoms: _43  and  _46
REMARK   22  A    between atoms: _49  and  _51
REMARK   23  A    between atoms: _51  and  _52
REMARK   24  A    between atoms: _55  and  _57
REMARK   25  A    between atoms: _57  and  _58
REMARK   26  A    between atoms: _57  and  _60
REMARK   27  A    between atoms: _60  and  _61
REMARK   28  A    between atoms: _63  and  _65
REMARK   29  A    between atoms: _65  and  _66
REMARK   30  A    between atoms: _65  and  _68
REMARK   31  A    between atoms: _68  and  _69
REMARK   32  A    between atoms: _72  and  _74
REMARK   33  A    between atoms: _74  and  _75
REMARK   34  A    between atoms: _74  and  _77
REMARK   35  A    between atoms: _77  and  _78
REMARK   36  A    between atoms: _83  and  _85
REMARK   37  A    between atoms: _85  and  _86
REMARK   38  A    between atoms: _85  and  _88
REMARK   39  A    between atoms: _88  and  _89
REMARK   40  A    between atoms: _89  and  _90
REMARK   41  A    between atoms: _90  and  _91
REMARK   42  A    between atoms: _100  and  _102
REMARK   43  A    between atoms: _102  and  _103
REMARK   44  A    between atoms: _105  and  _107
REMARK   45  A    between atoms: _107  and  _108
REMARK   46  A    between atoms: _107  and  _110
REMARK   47  A    between atoms: _113  and  _115
REMARK   48  A    between atoms: _115  and  _116
REMARK   49  A    between atoms: _115  and  _118
REMARK   50  A    between atoms: _118  and  _119
REMARK   51  A    between atoms: _122  and  _124
REMARK   52  A    between atoms: _124  and  _125
REMARK   53  A    between atoms: _124  and  _127
REMARK   54  A    between atoms: _127  and  _128
REMARK   55  A    between atoms: _128  and  _129
REMARK   56  A    between atoms: _129  and  _130
REMARK   57  A    between atoms: _130  and  _131
REMARK   58  A    between atoms: _135  and  _137
REMARK   59  A    between atoms: _137  and  _138
REMARK   60  A    between atoms: _137  and  _140
REMARK   61  A    between atoms: _140  and  _141
REMARK   62  A    between atoms: _141  and  _142
REMARK   63  A    between atoms: _142  and  _143
REMARK   64  A    between atoms: _143  and  _144
REMARK   65  A    between atoms: _148  and  _150
REMARK   66  A    between atoms: _150  and  _151
REMARK   67  A    between atoms: _150  and  _153
REMARK   68  A    between atoms: _153  and  _154
REMARK   69  A    between atoms: _159  and  _161
REMARK   70  A    between atoms: _161  and  _162
REMARK   71  A    between atoms: _161  and  _164
REMARK   72  A    between atoms: _164  and  _165
REMARK   73  A    between atoms: _170  and  _172
REMARK   74  A    between atoms: _172  and  _173
REMARK   75  A    between atoms: _176  and  _178
REMARK   76  A    between atoms: _178  and  _179
REMARK   77  A    between atoms: _178  and  _181
REMARK   78  A    between atoms: _181  and  _182
REMARK   79  A    between atoms: _187  and  _189
REMARK   80  A    between atoms: _189  and  _190
REMARK   81  A    between atoms: _193  and  _195
REMARK   82  A    between atoms: _195  and  _196
REMARK   83  A    between atoms: _199  and  _201
REMARK   84  A    between atoms: _201  and  _202
REMARK   85  A    between atoms: _201  and  _204
REMARK   86  A    between atoms: _204  and  _205
REMARK   87  A    between atoms: _210  and  _212
REMARK   88  A    between atoms: _212  and  _213
REMARK   89  A    between atoms: _212  and  _215
REMARK   90  A    between atoms: _215  and  _216
REMARK   91  A    between atoms: _219  and  _221
REMARK   92  A    between atoms: _221  and  _222
REMARK   93  A    between atoms: _224  and  _226
REMARK   94  A    between atoms: _226  and  _227
REMARK   95  A    between atoms: _226  and  _229
REMARK   96  A    between atoms: _229  and  _230
REMARK   97  A    between atoms: _230  and  _231
REMARK   98  A    between atoms: _234  and  _236
REMARK   99  A    between atoms: _236  and  _237
REMARK  100  A    between atoms: _236  and  _239
REMARK  101  A    between atoms: _239  and  _240
REMARK  102  A    between atoms: _242  and  _244
REMARK  103  A    between atoms: _244  and  _245
REMARK  104  A    between atoms: _244  and  _247
REMARK  105  A    between atoms: _247  and  _248
REMARK  106  A    between atoms: _251  and  _253
REMARK  107  A    between atoms: _253  and  _254
REMARK  108  A    between atoms: _253  and  _256
REMARK  109  A    between atoms: _256  and  _257
REMARK  110  A    between atoms: _257  and  _258
REMARK  111  A    between atoms: _260  and  _262
REMARK  112  A    between atoms: _262  and  _263
REMARK  113  A    between atoms: _266  and  _268
REMARK  114  A    between atoms: _268  and  _269
REMARK  115  A    between atoms: _272  and  _274
REMARK  116  A    between atoms: _274  and  _275
REMARK  117  A    between atoms: _274  and  _277
REMARK  118  A    between atoms: _277  and  _278
REMARK  119  A    between atoms: _281  and  _283
REMARK  120  A    between atoms: _283  and  _284
REMARK  121  A    between atoms: _287  and  _289
REMARK  122  A    between atoms: _289  and  _290
REMARK  123  A    between atoms: _293  and  _295
REMARK  124  A    between atoms: _295  and  _296
REMARK  125  A    between atoms: _298  and  _300
REMARK  126  A    between atoms: _300  and  _301
REMARK  127  A    between atoms: _300  and  _303
REMARK  128  A    between atoms: _303  and  _304
REMARK  129  A    between atoms: _309  and  _311
REMARK  130  A    between atoms: _311  and  _312
REMARK  131  A    between atoms: _311  and  _314
REMARK  132  A    between atoms: _314  and  _315
REMARK  133  A    between atoms: _315  and  _316
REMARK  134  A    between atoms: _319  and  _321
REMARK  135  A    between atoms: _321  and  _322
REMARK  136  A    between atoms: _321  and  _324
REMARK  137  A    between atoms: _324  and  _325
REMARK  138  A    between atoms: _328  and  _330
REMARK  139  A    between atoms: _330  and  _331
REMARK  140  A    between atoms: _330  and  _333
REMARK  141  A    between atoms: _333  and  _334
REMARK  142  A    between atoms: _334  and  _335
REMARK  143  A    between atoms: _335  and  _336
REMARK  144  A    between atoms: _345  and  _347
REMARK  145  A    between atoms: _347  and  _348
REMARK  146  A    between atoms: _351  and  _352
REMARK  147  A    between atoms: _357  and  _359
REMARK  148  A    between atoms: _359  and  _360
REMARK  149  A    between atoms: _359  and  _362
REMARK  150  A    between atoms: _362  and  _363
REMARK  151  A    between atoms: _363  and  _364
REMARK  152  A    between atoms: _366  and  _368
REMARK  153  A    between atoms: _368  and  _369
REMARK  154  A    between atoms: _368  and  _371
REMARK  155  A    between atoms: _371  and  _372
REMARK  156  A    between atoms: _372  and  _373
REMARK  157  A    between atoms: _375  and  _377
REMARK  158  A    between atoms: _377  and  _378
REMARK  159  A    between atoms: _377  and  _380
REMARK  160  A    between atoms: _380  and  _381
REMARK  161  A    between atoms: _386  and  _388
REMARK  162  A    between atoms: _388  and  _389
REMARK  163  A    between atoms: _388  and  _391
REMARK  164  A    between atoms: _391  and  _392
REMARK  165  A    between atoms: _395  and  _397
REMARK  166  A    between atoms: _397  and  _398
REMARK  167  A    between atoms: _397  and  _400
REMARK  168  A    between atoms: _400  and  _401
REMARK  169  A    between atoms: _403  and  _405
REMARK  170  A    between atoms: _405  and  _406
REMARK  171  A    between atoms: _405  and  _408
REMARK  172  A    between atoms: _408  and  _409
REMARK  173  A    between atoms: _409  and  _410
REMARK  174  A    between atoms: _410  and  _411
REMARK  175  A    between atoms: _411  and  _412
REMARK  176  A    between atoms: _416  and  _418
REMARK  177  A    between atoms: _418  and  _419
REMARK  178  A    between atoms: _418  and  _421
REMARK  179  A    between atoms: _421  and  _422
REMARK  180  A    between atoms: _425  and  _427
REMARK  181  A    between atoms: _427  and  _428
REMARK  182  A    between atoms: _427  and  _430
REMARK  183  A    between atoms: _430  and  _431
REMARK  184  A    between atoms: _431  and  _432
REMARK  185  A    between atoms: _435  and  _437
REMARK  186  A    between atoms: _437  and  _438
REMARK  187  A    between atoms: _441  and  _443
REMARK  188  A    between atoms: _443  and  _444
REMARK  189  A    between atoms: _443  and  _446
REMARK  190  A    between atoms: _449  and  _451
REMARK  191  A    between atoms: _451  and  _452
REMARK  192  A    between atoms: _451  and  _454
REMARK  193  A    between atoms: _454  and  _455
REMARK  194  A    between atoms: _457  and  _459
REMARK  195  A    between atoms: _459  and  _460
REMARK  196  A    between atoms: _462  and  _464
REMARK  197  A    between atoms: _464  and  _465
REMARK  198  A    between atoms: _464  and  _467
REMARK  199  A    between atoms: _467  and  _468
REMARK  200  A    between atoms: _473  and  _475
REMARK  201  A    between atoms: _475  and  _476
REMARK  202  A    between atoms: _475  and  _478
REMARK  203  A    between atoms: _478  and  _479
REMARK  204  A    between atoms: _484  and  _485
REMARK  205  A    between atoms: _487  and  _489
REMARK  206  A    between atoms: _489  and  _490
REMARK  207  A    between atoms: _489  and  _492
REMARK  208  A    between atoms: _494  and  _496
REMARK  209  A    between atoms: _496  and  _497
REMARK  210  A    between atoms: _496  and  _499
REMARK  211  A    between atoms: _499  and  _500
REMARK  212  A    between atoms: _503  and  _505
REMARK  213  A    between atoms: _505  and  _506
REMARK  214  A    between atoms: _505  and  _508
REMARK  215  A    between atoms: _508  and  _509
REMARK  216  A    between atoms: _512  and  _514
REMARK  217  A    between atoms: _514  and  _515
REMARK  218  A    between atoms: _514  and  _517
REMARK  219  A    between atoms: _517  and  _518
REMARK  220  A    between atoms: _518  and  _519
REMARK  221  A    between atoms: _519  and  _520
REMARK  222  A    between atoms: _520  and  _521
REMARK  223  A    between atoms: _525  and  _527
REMARK  224  A    between atoms: _527  and  _528
REMARK  225  A    between atoms: _527  and  _530
REMARK  226  A    between atoms: _530  and  _531
REMARK  227  A    between atoms: _531  and  _532
REMARK  228  A    between atoms: _532  and  _533
REMARK  229  A    between atoms: _533  and  _534
REMARK  230  A    between atoms: _538  and  _540
REMARK  231  A    between atoms: _540  and  _541
REMARK  232  A    between atoms: _540  and  _543
REMARK  233  A    between atoms: _543  and  _544
REMARK  234  A    between atoms: _544  and  _545
REMARK  235  A    between atoms: _545  and  _546
REMARK  236  A    between atoms: _555  and  _557
REMARK  237  A    between atoms: _557  and  _558
REMARK  238  A    between atoms: _557  and  _560
REMARK  239  A    between atoms: _560  and  _561
REMARK  240  A    between atoms: _564  and  _566
REMARK  241  A    between atoms: _566  and  _567
REMARK  242  A    between atoms: _570  and  _572
REMARK  243  A    between atoms: _572  and  _573
REMARK  244  A    between atoms: _572  and  _575
REMARK  245  A    between atoms: _575  and  _576
REMARK  246  A    between atoms: _576  and  _577
REMARK                            x       y       z     vdW  Elec       q    Type
REMARK                         _______ _______ _______ _____ _____    ______ ____
ROOT
ATOM      1  CA  MET A   1      18.524  -7.276 -10.565  0.00  0.00    +0.134 C 
ENDROOT
BRANCH   1   2
ATOM      2  N   MET A   1      17.896  -7.717 -11.811  0.00  0.00    -0.239 NA
ATOM      3  H   MET A   1      18.238  -8.584 -12.273  0.00  0.00    +0.142 HD
ENDBRANCH   1   2
BRANCH   1   4
ATOM      4  C   MET A   1      19.144  -5.893 -10.783  0.00  0.00    +0.224 C 
ATOM      5  O   MET A   1      19.009  -4.999  -9.947  0.00  0.00    -0.287 OA
ENDBRANCH   1   4
BRANCH   1   6
ATOM      6  CB  MET A   1      19.564  -8.301 -10.083  0.00  0.00    +0.037 C 
BRANCH   6   7
ATOM      7  CG  MET A   1      20.176  -7.957  -8.720  0.00  0.00    +0.059 C 
BRANCH   7   8
ATOM      8  SD  MET A   1      21.671  -6.981  -8.917  0.00  0.00    -0.139 S 
ATOM      9  CE  MET A   1      22.793  -8.226  -9.536  0.00  0.00    +0.069 C 
ENDBRANCH   7   8
ENDBRANCH   6   7
ENDBRANCH   1   6
TORSDOF 5
REMARK  Name = ../refined-set-2016/3cct/3cct_pocket.pdb
REMARK  246 active torsions:
REMARK  status: ('A' for Active; 'I' for Inactive)
REMARK    1  A    between atoms: _1  and  _3
REMARK    2  A    between atoms: _3  and  _4
REMARK    3  A    between atoms: _3  and  _6
REMARK    4  A    between atoms: _6  and  _7
REMARK    5  A    between atoms: _10  and  _12
REMARK    6  A    between atoms: _12  and  _13
REMARK    7  A    between atoms: _12  and  _15
REMARK    8  A    between atoms: _15  and  _16
REMARK    9  A    between atoms: _16  and  _17
REMARK   10  A    between atoms: _20  and  _22
REMARK   11  A    between atoms: _22  and  _23
REMARK   12  A    between atoms: _25  and  _27
REMARK   13  A    between atoms: _27  and  _28
REMARK   14  A    between atoms: _27  and  _30
REMARK   15  A    between atoms: _32  and  _34
REMARK   16  A    between atoms: _34  and  _35
REMARK   17  A    between atoms: _34  and  _37
REMARK   18  A    between atoms: _37  and  _38
REMARK   19  A    between atoms: _41  and  _43
REMARK   20  A    between atoms: _43  and  _44
REMARK   21  A    between atoms: _43  and  _46
REMARK   22  A    between atoms: _49  and  _51
REMARK   23  A    between atoms: _51  and  _52
REMARK   24  A    between atoms: _55  and  _57
REMARK   25  A    between atoms: _57  and  _58
REMARK   26  A    between atoms: _57  and  _60
REMARK   27  A    between atoms: _60  and  _61
REMARK   28  A    between atoms: _63  and  _65
REMARK   29  A    between atoms: _65  and  _66
REMARK   30  A    between atoms: _65  and  _68
REMARK   31  A    between atoms: _68  and  _69
REMARK   32  A    between atoms: _72  and  _74
REMARK   33  A    between atoms: _74  and  _75
REMARK   34  A    between atoms: _74  and  _77
REMARK   35  A    between atoms: _77  and  _78
REMARK   36  A    between atoms: _83  and  _85
REMARK   37  A    between atoms: _85  and  _86
REMARK   38  A    between atoms: _85  and  _88
REMARK   39  A    between atoms: _88  and  _89
REMARK   40  A    between atoms: _89  and  _90
REMARK   41  A    between atoms: _90  and  _91
REMARK   42  A    between atoms: _100  and  _102
REMARK   43  A    between atoms: _102  and  _103
REMARK   44  A    between atoms: _105  and  _107
REMARK   45  A    between atoms: _107  and  _108
REMARK   46  A    between atoms: _107  and  _110
REMARK   47  A    between atoms: _113  and  _115
REMARK   48  A    between atoms: _115  and  _116
REMARK   49  A    between atoms: _115  and  _118
REMARK   50  A    between atoms: _118  and  _119
REMARK   51  A    between atoms: _122  and  _124
REMARK   52  A    between atoms: _124  and  _125
REMARK   53  A    between atoms: _124  and  _127
REMARK   54  A    between atoms: _127  and  _128
REMARK   55  A    between atoms: _128  and  _129
REMARK   56  A    between atoms: _129  and  _130
REMARK   57  A    between atoms: _130  and  _131
REMARK   58  A    between atoms: _135  and  _137
REMARK   59  A    between atoms: _137  and  _138
REMARK   60  A    between atoms: _137  and  _140
REMARK   61  A    between atoms: _140  and  _141
REMARK   62  A    between atoms: _141  and  _142
REMARK   63  A    between atoms: _142  and  _143
REMARK   64  A    between atoms: _143  and  _144
REMARK   65  A    between atoms: _148  and  _150
REMARK   66  A    between atoms: _150  and  _151
REMARK   67  A    between atoms: _150  and  _153
REMARK   68  A    between atoms: _153  and  _154
REMARK   69  A    between atoms: _159  and  _161
REMARK   70  A    between atoms: _161  and  _162
REMARK   71  A    between atoms: _161  and  _164
REMARK   72  A    between atoms: _164  and  _165
REMARK   73  A    between atoms: _170  and  _172
REMARK   74  A    between atoms: _172  and  _173
REMARK   75  A    between atoms: _176  and  _178
REMARK   76  A    between atoms: _178  and  _179
REMARK   77  A    between atoms: _178  and  _181
REMARK   78  A    between atoms: _181  and  _182
REMARK   79  A    between atoms: _187  and  _189
REMARK   80  A    between atoms: _189  and  _190
REMARK   81  A    between atoms: _193  and  _195
REMARK   82  A    between atoms: _195  and  _196
REMARK   83  A    between atoms: _199  and  _201
REMARK   84  A    between atoms: _201  and  _202
REMARK   85  A    between atoms: _201  and  _204
REMARK   86  A    between atoms: _204  and  _205
REMARK   87  A    between atoms: _210  and  _212
REMARK   88  A    between atoms: _212  and  _213
REMARK   89  A    between atoms: _212  and  _215
REMARK   90  A    between atoms: _215  and  _216
REMARK   91  A    between atoms: _219  and  _221
REMARK   92  A    between atoms: _221  and  _222
REMARK   93  A    between atoms: _224  and  _226
REMARK   94  A    between atoms: _226  and  _227
REMARK   95  A    between atoms: _226  and  _229
REMARK   96  A    between atoms: _229  and  _230
REMARK   97  A    between atoms: _230  and  _231
REMARK   98  A    between atoms: _234  and  _236
REMARK   99  A    between atoms: _236  and  _237
REMARK  100  A    between atoms: _236  and  _239
REMARK  101  A    between atoms: _239  and  _240
REMARK  102  A    between atoms: _242  and  _244
REMARK  103  A    between atoms: _244  and  _245
REMARK  104  A    between atoms: _244  and  _247
REMARK  105  A    between atoms: _247  and  _248
REMARK  106  A    between atoms: _251  and  _253
REMARK  107  A    between atoms: _253  and  _254
REMARK  108  A    between atoms: _253  and  _256
REMARK  109  A    between atoms: _256  and  _257
REMARK  110  A    between atoms: _257  and  _258
REMARK  111  A    between atoms: _260  and  _262
REMARK  112  A    between atoms: _262  and  _263
REMARK  113  A    between atoms: _266  and  _268
REMARK  114  A    between atoms: _268  and  _269
REMARK  115  A    between atoms: _272  and  _274
REMARK  116  A    between atoms: _274  and  _275
REMARK  117  A    between atoms: _274  and  _277
REMARK  118  A    between atoms: _277  and  _278
REMARK  119  A    between atoms: _281  and  _283
REMARK  120  A    between atoms: _283  and  _284
REMARK  121  A    between atoms: _287  and  _289
REMARK  122  A    between atoms: _289  and  _290
REMARK  123  A    between atoms: _293  and  _295
REMARK  124  A    between atoms: _295  and  _296
REMARK  125  A    between atoms: _298  and  _300
REMARK  126  A    between atoms: _300  and  _301
REMARK  127  A    between atoms: _300  and  _303
REMARK  128  A    between atoms: _303  and  _304
REMARK  129  A    between atoms: _309  and  _311
REMARK  130  A    between atoms: _311  and  _312
REMARK  131  A    between atoms: _311  and  _314
REMARK  132  A    between atoms: _314  and  _315
REMARK  133  A    between atoms: _315  and  _316
REMARK  134  A    between atoms: _319  and  _321
REMARK  135  A    between atoms: _321  and  _322
REMARK  136  A    between atoms: _321  and  _324
REMARK  137  A    between atoms: _324  and  _325
REMARK  138  A    between atoms: _328  and  _330
REMARK  139  A    between atoms: _330  and  _331
REMARK  140  A    between atoms: _330  and  _333
REMARK  141  A    between atoms: _333  and  _334
REMARK  142  A    between atoms: _334  and  _335
REMARK  143  A    between atoms: _335  and  _336
REMARK  144  A    between atoms: _345  and  _347
REMARK  145  A    between atoms: _347  and  _348
REMARK  146  A    between atoms: _351  and  _352
REMARK  147  A    between atoms: _357  and  _359
REMARK  148  A    between atoms: _359  and  _360
REMARK  149  A    between atoms: _359  and  _362
REMARK  150  A    between atoms: _362  and  _363
REMARK  151  A    between atoms: _363  and  _364
REMARK  152  A    between atoms: _366  and  _368
REMARK  153  A    between atoms: _368  and  _369
REMARK  154  A    between atoms: _368  and  _371
REMARK  155  A    between atoms: _371  and  _372
REMARK  156  A    between atoms: _372  and  _373
REMARK  157  A    between atoms: _375  and  _377
REMARK  158  A    between atoms: _377  and  _378
REMARK  159  A    between atoms: _377  and  _380
REMARK  160  A    between atoms: _380  and  _381
REMARK  161  A    between atoms: _386  and  _388
REMARK  162  A    between atoms: _388  and  _389
REMARK  163  A    between atoms: _388  and  _391
REMARK  164  A    between atoms: _391  and  _392
REMARK  165  A    between atoms: _395  and  _397
REMARK  166  A    between atoms: _397  and  _398
REMARK  167  A    between atoms: _397  and  _400
REMARK  168  A    between atoms: _400  and  _401
REMARK  169  A    between atoms: _403  and  _405
REMARK  170  A    between atoms: _405  and  _406
REMARK  171  A    between atoms: _405  and  _408
REMARK  172  A    between atoms: _408  and  _409
REMARK  173  A    between atoms: _409  and  _410
REMARK  174  A    between atoms: _410  and  _411
REMARK  175  A    between atoms: _411  and  _412
REMARK  176  A    between atoms: _416  and  _418
REMARK  177  A    between atoms: _418  and  _419
REMARK  178  A    between atoms: _418  and  _421
REMARK  179  A    between atoms: _421  and  _422
REMARK  180  A    between atoms: _425  and  _427
REMARK  181  A    between atoms: _427  and  _428
REMARK  182  A    between atoms: _427  and  _430
REMARK  183  A    between atoms: _430  and  _431
REMARK  184  A    between atoms: _431  and  _432
REMARK  185  A    between atoms: _435  and  _437
REMARK  186  A    between atoms: _437  and  _438
REMARK  187  A    between atoms: _441  and  _443
REMARK  188  A    between atoms: _443  and  _444
REMARK  189  A    between atoms: _443  and  _446
REMARK  190  A    between atoms: _449  and  _451
REMARK  191  A    between atoms: _451  and  _452
REMARK  192  A    between atoms: _451  and  _454
REMARK  193  A    between atoms: _454  and  _455
REMARK  194  A    between atoms: _457  and  _459
REMARK  195  A    between atoms: _459  and  _460
REMARK  196  A    between atoms: _462  and  _464
REMARK  197  A    between atoms: _464  and  _465
REMARK  198  A    between atoms: _464  and  _467
REMARK  199  A    between atoms: _467  and  _468
REMARK  200  A    between atoms: _473  and  _475
REMARK  201  A    between atoms: _475  and  _476
REMARK  202  A    between atoms: _475  and  _478
REMARK  203  A    between atoms: _478  and  _479
REMARK  204  A    between atoms: _484  and  _485
REMARK  205  A    between atoms: _487  and  _489
REMARK  206  A    between atoms: _489  and  _490
REMARK  207  A    between atoms: _489  and  _492
REMARK  208  A    between atoms: _494  and  _496
REMARK  209  A    between atoms: _496  and  _497
REMARK  210  A    between atoms: _496  and  _499
REMARK  211  A    between atoms: _499  and  _500
REMARK  212  A    between atoms: _503  and  _505
REMARK  213  A    between atoms: _505  and  _506
REMARK  214  A    between atoms: _505  and  _508
REMARK  215  A    between atoms: _508  and  _509
REMARK  216  A    between atoms: _512  and  _514
REMARK  217  A    between atoms: _514  and  _515
REMARK  218  A    between atoms: _514  and  _517
REMARK  219  A    between atoms: _517  and  _518
REMARK  220  A    between atoms: _518  and  _519
REMARK  221  A    between atoms: _519  and  _520
REMARK  222  A    between atoms: _520  and  _521
REMARK  223  A    between atoms: _525  and  _527
REMARK  224  A    between atoms: _527  and  _528
REMARK  225  A    between atoms: _527  and  _530
REMARK  226  A    between atoms: _530  and  _531
REMARK  227  A    between atoms: _531  and  _532
REMARK  228  A    between atoms: _532  and  _533
REMARK  229  A    between atoms: _533  and  _534
REMARK  230  A    between atoms: _538  and  _540
REMARK  231  A    between atoms: _540  and  _541
REMARK  232  A    between atoms: _540  and  _543
REMARK  233  A    between atoms: _543  and  _544
REMARK  234  A    between atoms: _544  and  _545
REMARK  235  A    between atoms: _545  and  _546
REMARK  236  A    between atoms: _555  and  _557
REMARK  237  A    between atoms: _557  and  _558
REMARK  238  A    between atoms: _557  and  _560
REMARK  239  A    between atoms: _560  and  _561
REMARK  240  A    between atoms: _564  and  _566
REMARK  241  A    between atoms: _566  and  _567
REMARK  242  A    between atoms: _570  and  _572
REMARK  243  A    between atoms: _572  and  _573
REMARK  244  A    between atoms: _572  and  _575
REMARK  245  A    between atoms: _575  and  _576
REMARK  246  A    between atoms: _576  and  _577
REMARK                            x       y       z     vdW  Elec       q    Type
REMARK                         _______ _______ _______ _____ _____    ______ ____
ROOT
ATOM      1  C   MET A   1      24.390  -3.715 -13.055  0.00  0.00    +0.238 C 
ATOM      2  O   MET A   1      24.841  -2.581 -13.140  0.00  0.00    -0.274 OA
ATOM      3  N   ASN A   2      24.312  -4.560 -14.081  0.00  0.00    -0.298 N 
ATOM      4  H   ASN A   2      23.870  -5.490 -13.934  0.00  0.00    +0.150 HD
ENDROOT
BRANCH   1   5
ATOM      5  CA  MET A   1      23.876  -4.225 -11.719  0.00  0.00    +0.146 C 
BRANCH   5   6
ATOM      6  N   MET A   1      22.501  -4.716 -11.848  0.00  0.00    -0.238 NA
ATOM      7  H   MET A   1      22.260  -5.681 -11.543  0.00  0.00    +0.142 HD
ENDBRANCH   5   6
BRANCH   5   8
ATOM      8  CB  MET A   1      24.835  -5.305 -11.199  0.00  0.00    +0.038 C 
BRANCH   8   9
ATOM      9  CG  MET A   1      24.623  -5.645  -9.746  0.00  0.00    +0.060 C 
BRANCH   9  10
ATOM     10  SD  MET A   1      25.340  -4.506  -8.580  0.00  0.00    -0.139 S 
ATOM     11  CE  MET A   1      26.966  -5.030  -8.666  0.00  0.00    +0.069 C 
ENDBRANCH   9  10
ENDBRANCH   8   9
ENDBRANCH   5   8
ENDBRANCH   1   5
BRANCH   3  12
ATOM     12  CA  ASN A   2      24.828  -4.224 -15.410  0.00  0.00    +0.146 C 
BRANCH  12  13
ATOM     13  C   ASN A   2      24.200  -2.966 -15.996  0.00  0.00    +0.227 C 
ATOM     14  O   ASN A   2      24.915  -2.072 -16.432  0.00  0.00    -0.286 OA
ENDBRANCH  12  13
BRANCH  12  15
ATOM     15  CB  ASN A   2      24.663  -5.400 -16.384  0.00  0.00    +0.112 C 
BRANCH  15  16
ATOM     16  CG  ASN A   2      25.596  -6.552 -16.057  0.00  0.00    +0.222 C 
ATOM     17  OD1 ASN A   2      26.744  -6.337 -15.669  0.00  0.00    -0.275 OA
ATOM     18  ND2 ASN A   2      25.104  -7.775 -16.185  0.00  0.00    -0.329 N 
ATOM     19 HD21 ASN A   2      25.694  -8.600 -15.954  0.00  0.00    +0.145 HD
ATOM     20 HD22 ASN A   2      24.128  -7.911 -16.517  0.00  0.00    +0.145 HD
ENDBRANCH  15  16
ENDBRANCH  12  15
ENDBRANCH   3  12
TORSDOF 9
REMARK  Name = ../refined-set-2016/3cct/3cct_pocket.pdb
REMARK  246 active torsions:
REMARK  status: ('A' for Active; 'I' for Inactive)
REMARK    1  A    between atoms: _1  and  _3
REMARK    2  A    between atoms: _3  and  _4
REMARK    3  A    between atoms: _3  and  _6
REMARK    4  A    between atoms: _6  and  _7
REMARK    5  A    between atoms: _10  and  _12
REMARK    6  A    between atoms: _12  and  _13
REMARK    7  A    between atoms: _12  and  _15
REMARK    8  A    between atoms: _15  and  _16
REMARK    9  A    between atoms: _16  and  _17
REMARK   10  A    between atoms: _20  and  _22
REMARK   11  A    between atoms: _22  and  _23
REMARK   12  A    between atoms: _25  and  _27
REMARK   13  A    between atoms: _27  and  _28
REMARK   14  A    between atoms: _27  and  _30
REMARK   15  A    between atoms: _32  and  _34
REMARK   16  A    between atoms: _34  and  _35
REMARK   17  A    between atoms: _34  and  _37
REMARK   18  A    between atoms: _37  and  _38
REMARK   19  A    between atoms: _41  and  _43
REMARK   20  A    between atoms: _43  and  _44
REMARK   21  A    between atoms: _43  and  _46
REMARK   22  A    between atoms: _49  and  _51
REMARK   23  A    between atoms: _51  and  _52
REMARK   24  A    between atoms: _55  and  _57
REMARK   25  A    between atoms: _57  and  _58
REMARK   26  A    between atoms: _57  and  _60
REMARK   27  A    between atoms: _60  and  _61
REMARK   28  A    between atoms: _63  and  _65
REMARK   29  A    between atoms: _65  and  _66
REMARK   30  A    between atoms: _65  and  _68
REMARK   31  A    between atoms: _68  and  _69
REMARK   32  A    between atoms: _72  and  _74
REMARK   33  A    between atoms: _74  and  _75
REMARK   34  A    between atoms: _74  and  _77
REMARK   35  A    between atoms: _77  and  _78
REMARK   36  A    between atoms: _83  and  _85
REMARK   37  A    between atoms: _85  and  _86
REMARK   38  A    between atoms: _85  and  _88
REMARK   39  A    between atoms: _88  and  _89
REMARK   40  A    between atoms: _89  and  _90
REMARK   41  A    between atoms: _90  and  _91
REMARK   42  A    between atoms: _100  and  _102
REMARK   43  A    between atoms: _102  and  _103
REMARK   44  A    between atoms: _105  and  _107
REMARK   45  A    between atoms: _107  and  _108
REMARK   46  A    between atoms: _107  and  _110
REMARK   47  A    between atoms: _113  and  _115
REMARK   48  A    between atoms: _115  and  _116
REMARK   49  A    between atoms: _115  and  _118
REMARK   50  A    between atoms: _118  and  _119
REMARK   51  A    between atoms: _122  and  _124
REMARK   52  A    between atoms: _124  and  _125
REMARK   53  A    between atoms: _124  and  _127
REMARK   54  A    between atoms: _127  and  _128
REMARK   55  A    between atoms: _128  and  _129
REMARK   56  A    between atoms: _129  and  _130
REMARK   57  A    between atoms: _130  and  _131
REMARK   58  A    between atoms: _135  and  _137
REMARK   59  A    between atoms: _137  and  _138
REMARK   60  A    between atoms: _137  and  _140
REMARK   61  A    between atoms: _140  and  _141
REMARK   62  A    between atoms: _141  and  _142
REMARK   63  A    between atoms: _142  and  _143
REMARK   64  A    between atoms: _143  and  _144
REMARK   65  A    between atoms: _148  and  _150
REMARK   66  A    between atoms: _150  and  _151
REMARK   67  A    between atoms: _150  and  _153
REMARK   68  A    between atoms: _153  and  _154
REMARK   69  A    between atoms: _159  and  _161
REMARK   70  A    between atoms: _161  and  _162
REMARK   71  A    between atoms: _161  and  _164
REMARK   72  A    between atoms: _164  and  _165
REMARK   73  A    between atoms: _170  and  _172
REMARK   74  A    between atoms: _172  and  _173
REMARK   75  A    between atoms: _176  and  _178
REMARK   76  A    between atoms: _178  and  _179
REMARK   77  A    between atoms: _178  and  _181
REMARK   78  A    between atoms: _181  and  _182
REMARK   79  A    between atoms: _187  and  _189
REMARK   80  A    between atoms: _189  and  _190
REMARK   81  A    between atoms: _193  and  _195
REMARK   82  A    between atoms: _195  and  _196
REMARK   83  A    between atoms: _199  and  _201
REMARK   84  A    between atoms: _201  and  _202
REMARK   85  A    between atoms: _201  and  _204
REMARK   86  A    between atoms: _204  and  _205
REMARK   87  A    between atoms: _210  and  _212
REMARK   88  A    between atoms: _212  and  _213
REMARK   89  A    between atoms: _212  and  _215
REMARK   90  A    between atoms: _215  and  _216
REMARK   91  A    between atoms: _219  and  _221
REMARK   92  A    between atoms: _221  and  _222
REMARK   93  A    between atoms: _224  and  _226
REMARK   94  A    between atoms: _226  and  _227
REMARK   95  A    between atoms: _226  and  _229
REMARK   96  A    between atoms: _229  and  _230
REMARK   97  A    between atoms: _230  and  _231
REMARK   98  A    between atoms: _234  and  _236
REMARK   99  A    between atoms: _236  and  _237
REMARK  100  A    between atoms: _236  and  _239
REMARK  101  A    between atoms: _239  and  _240
REMARK  102  A    between atoms: _242  and  _244
REMARK  103  A    between atoms: _244  and  _245
REMARK  104  A    between atoms: _244  and  _247
REMARK  105  A    between atoms: _247  and  _248
REMARK  106  A    between atoms: _251  and  _253
REMARK  107  A    between atoms: _253  and  _254
REMARK  108  A    between atoms: _253  and  _256
REMARK  109  A    between atoms: _256  and  _257
REMARK  110  A    between atoms: _257  and  _258
REMARK  111  A    between atoms: _260  and  _262
REMARK  112  A    between atoms: _262  and  _263
REMARK  113  A    between atoms: _266  and  _268
REMARK  114  A    between atoms: _268  and  _269
REMARK  115  A    between atoms: _272  and  _274
REMARK  116  A    between atoms: _274  and  _275
REMARK  117  A    between atoms: _274  and  _277
REMARK  118  A    between atoms: _277  and  _278
REMARK  119  A    between atoms: _281  and  _283
REMARK  120  A    between atoms: _283  and  _284
REMARK  121  A    between atoms: _287  and  _289
REMARK  122  A    between atoms: _289  and  _290
REMARK  123  A    between atoms: _293  and  _295
REMARK  124  A    between atoms: _295  and  _296
REMARK  125  A    between atoms: _298  and  _300
REMARK  126  A    between atoms: _300  and  _301
REMARK  127  A    between atoms: _300  and  _303
REMARK  128  A    between atoms: _303  and  _304
REMARK  129  A    between atoms: _309  and  _311
REMARK  130  A    between atoms: _311  and  _312
REMARK  131  A    between atoms: _311  and  _314
REMARK  132  A    between atoms: _314  and  _315
REMARK  133  A    between atoms: _315  and  _316
REMARK  134  A    between atoms: _319  and  _321
REMARK  135  A    between atoms: _321  and  _322
REMARK  136  A    between atoms: _321  and  _324
REMARK  137  A    between atoms: _324  and  _325
REMARK  138  A    between atoms: _328  and  _330
REMARK  139  A    between atoms: _330  and  _331
REMARK  140  A    between atoms: _330  and  _333
REMARK  141  A    between atoms: _333  and  _334
REMARK  142  A    between atoms: _334  and  _335
REMARK  143  A    between atoms: _335  and  _336
REMARK  144  A    between atoms: _345  and  _347
REMARK  145  A    between atoms: _347  and  _348
REMARK  146  A    between atoms: _351  and  _352
REMARK  147  A    between atoms: _357  and  _359
REMARK  148  A    between atoms: _359  and  _360
REMARK  149  A    between atoms: _359  and  _362
REMARK  150  A    between atoms: _362  and  _363
REMARK  151  A    between atoms: _363  and  _364
REMARK  152  A    between atoms: _366  and  _368
REMARK  153  A    between atoms: _368  and  _369
REMARK  154  A    between atoms: _368  and  _371
REMARK  155  A    between atoms: _371  and  _372
REMARK  156  A    between atoms: _372  and  _373
REMARK  157  A    between atoms: _375  and  _377
REMARK  158  A    between atoms: _377  and  _378
REMARK  159  A    between atoms: _377  and  _380
REMARK  160  A    between atoms: _380  and  _381
REMARK  161  A    between atoms: _386  and  _388
REMARK  162  A    between atoms: _388  and  _389
REMARK  163  A    between atoms: _388  and  _391
REMARK  164  A    between atoms: _391  and  _392
REMARK  165  A    between atoms: _395  and  _397
REMARK  166  A    between atoms: _397  and  _398
REMARK  167  A    between atoms: _397  and  _400
REMARK  168  A    between atoms: _400  and  _401
REMARK  169  A    between atoms: _403  and  _405
REMARK  170  A    between atoms: _405  and  _406
REMARK  171  A    between atoms: _405  and  _408
REMARK  172  A    between atoms: _408  and  _409
REMARK  173  A    between atoms: _409  and  _410
REMARK  174  A    between atoms: _410  and  _411
REMARK  175  A    between atoms: _411  and  _412
REMARK  176  A    between atoms: _416  and  _418
REMARK  177  A    between atoms: _418  and  _419
REMARK  178  A    between atoms: _418  and  _421
REMARK  179  A    between atoms: _421  and  _422
REMARK  180  A    between atoms: _425  and  _427
REMARK  181  A    between atoms: _427  and  _428
REMARK  182  A    between atoms: _427  and  _430
REMARK  183  A    between atoms: _430  and  _431
REMARK  184  A    between atoms: _431  and  _432
REMARK  185  A    between atoms: _435  and  _437
REMARK  186  A    between atoms: _437  and  _438
REMARK  187  A    between atoms: _441  and  _443
REMARK  188  A    between atoms: _443  and  _444
REMARK  189  A    between atoms: _443  and  _446
REMARK  190  A    between atoms: _449  and  _451
REMARK  191  A    between atoms: _451  and  _452
REMARK  192  A    between atoms: _451  and  _454
REMARK  193  A    between atoms: _454  and  _455
REMARK  194  A    between atoms: _457  and  _459
REMARK  195  A    between atoms: _459  and  _460
REMARK  196  A    between atoms: _462  and  _464
REMARK  197  A    between atoms: _464  and  _465
REMARK  198  A    between atoms: _464  and  _467
REMARK  199  A    between atoms: _467  and  _468
REMARK  200  A    between atoms: _473  and  _475
REMARK  201  A    between atoms: _475  and  _476
REMARK  202  A    between atoms: _475  and  _478
REMARK  203  A    between atoms: _478  and  _479
REMARK  204  A    between atoms: _484  and  _485
REMARK  205  A    between atoms: _487  and  _489
REMARK  206  A    between atoms: _489  and  _490
REMARK  207  A    between atoms: _489  and  _492
REMARK  208  A    between atoms: _494  and  _496
REMARK  209  A    between atoms: _496  and  _497
REMARK  210  A    between atoms: _496  and  _499
REMARK  211  A    between atoms: _499  and  _500
REMARK  212  A    between atoms: _503  and  _505
REMARK  213  A    between atoms: _505  and  _506
REMARK  214  A    between atoms: _505  and  _508
REMARK  215  A    between atoms: _508  and  _509
REMARK  216  A    between atoms: _512  and  _514
REMARK  217  A    between atoms: _514  and  _515
REMARK  218  A    between atoms: _514  and  _517
REMARK  219  A    between atoms: _517  and  _518
REMARK  220  A    between atoms: _518  and  _519
REMARK  221  A    between atoms: _519  and  _520
REMARK  222  A    between atoms: _520  and  _521
REMARK  223  A    between atoms: _525  and  _527
REMARK  224  A    between atoms: _527  and  _528
REMARK  225  A    between atoms: _527  and  _530
REMARK  226  A    between atoms: _530  and  _531
REMARK  227  A    between atoms: _531  and  _532
REMARK  228  A    between atoms: _532  and  _533
REMARK  229  A    between atoms: _533  and  _534
REMARK  230  A    between atoms: _538  and  _540
REMARK  231  A    between atoms: _540  and  _541
REMARK  232  A    between atoms: _540  and  _543
REMARK  233  A    between atoms: _543  and  _544
REMARK  234  A    between atoms: _544  and  _545
REMARK  235  A    between atoms: _545  and  _546
REMARK  236  A    between atoms: _555  and  _557
REMARK  237  A    between atoms: _557  and  _558
REMARK  238  A    between atoms: _557  and  _560
REMARK  239  A    between atoms: _560  and  _561
REMARK  240  A    between atoms: _564  and  _566
REMARK  241  A    between atoms: _566  and  _567
REMARK  242  A    between atoms: _570  and  _572
REMARK  243  A    between atoms: _572  and  _573
REMARK  244  A    between atoms: _572  and  _575
REMARK  245  A    between atoms: _575  and  _576
REMARK  246  A    between atoms: _576  and  _577
REMARK                            x       y       z     vdW  Elec       q    Type
REMARK                         _______ _______ _______ _____ _____    ______ ____
ROOT
ATOM      1  CA  SER A   2      26.531   0.475 -14.383  0.00  0.00    +0.178 C 
ENDROOT
BRANCH   1   4
ATOM      2  C   ILE A   1      24.222   1.099 -13.955  0.00  0.00    +0.238 C 
ATOM      3  O   ILE A   1      24.477   2.289 -14.032  0.00  0.00    -0.274 OA
ATOM      4  N   SER A   2      25.134   0.157 -14.155  0.00  0.00    -0.295 N 
ATOM      5  H   SER A   2      24.839  -0.840 -14.148  0.00  0.00    +0.150 HD
BRANCH   2   6
ATOM      6  CA  ILE A   1      22.795   0.632 -13.657  0.00  0.00    +0.145 C 
BRANCH   6   7
ATOM      7  N   ILE A   1      22.467  -0.528 -14.476  0.00  0.00    -0.238 NA
ATOM      8  H   ILE A   1      22.205  -1.419 -14.009  0.00  0.00    +0.142 HD
ENDBRANCH   6   7
BRANCH   6   9
ATOM      9  CB  ILE A   1      22.619   0.305 -12.152  0.00  0.00    +0.025 C 
ATOM     10  CG2 ILE A   1      23.107   1.456 -11.276  0.00  0.00    +0.002 C 
BRANCH   9  11
ATOM     11  CG1 ILE A   1      21.154  -0.001 -11.827  0.00  0.00    +0.002 C 
ATOM     12  CD1 ILE A   1      20.237   1.178 -11.867  0.00  0.00    +0.000 C 
ENDBRANCH   9  11
ENDBRANCH   6   9
ENDBRANCH   2   6
ENDBRANCH   1   4
BRANCH   1  13
ATOM     13  C   SER A   2      26.744   1.117 -15.753  0.00  0.00    +0.243 C 
ATOM     14  O   SER A   2      27.642   1.947 -15.924  0.00  0.00    -0.273 OA
ATOM     15  N   LYS A   3      25.912   0.731 -16.721  0.00  0.00    -0.298 N 
ATOM     16  H   LYS A   3      25.222  -0.021 -16.519  0.00  0.00    +0.150 HD
BRANCH  15  17
ATOM     17  CA  LYS A   3      25.934   1.325 -18.053  0.00  0.00    +0.137 C 
BRANCH  17  18
ATOM     18  C   LYS A   3      25.354   2.750 -18.013  0.00  0.00    +0.227 C 
ATOM     19  O   LYS A   3      25.896   3.663 -18.635  0.00  0.00    -0.286 OA
ENDBRANCH  17  18
BRANCH  17  20
ATOM     20  CB  LYS A   3      25.170   0.446 -19.050  0.00  0.00    +0.028 C 
BRANCH  20  21
ATOM     21  CG  LYS A   3      25.812   0.378 -20.437  0.00  0.00    -0.000 C 
BRANCH  21  22
ATOM     22  CD  LYS A   3      25.274  -0.795 -21.282  0.00  0.00    -0.024 C 
BRANCH  22  23
ATOM     23  CE  LYS A   3      26.190  -1.088 -22.476  0.00  0.00    -0.086 C 
BRANCH  23  24
ATOM     24  NZ  LYS A   3      26.583   0.162 -23.219  0.00  0.00    +0.380 N 
ATOM     25  HZ1 LYS A   3      27.089   0.802 -22.575  0.00  0.00    -0.089 HD
ATOM     26  HZ2 LYS A   3      25.728   0.634 -23.577  0.00  0.00    -0.089 HD
ATOM     27  HZ3 LYS A   3      27.202  -0.090 -24.016  0.00  0.00    -0.089 HD
ENDBRANCH  23  24
ENDBRANCH  22  23
ENDBRANCH  21  22
ENDBRANCH  20  21
ENDBRANCH  17  20
ENDBRANCH  15  17
ENDBRANCH   1  13
BRANCH   1  28
ATOM     28  CB  SER A   2      27.390  -0.785 -14.246  0.00  0.00    +0.166 C 
BRANCH  28  29
ATOM     29  OG  SER A   2      27.272  -1.333 -12.932  0.00  0.00    -0.380 OA
ATOM     30  H   SER A   2      26.326  -1.568 -12.757  0.00  0.00    +0.211 HD
ENDBRANCH  28  29
ENDBRANCH   1  28
TORSDOF 15
REMARK  Name = ../refined-set-2016/3cct/3cct_pocket.pdb
REMARK  246 active torsions:
REMARK  status: ('A' for Active; 'I' for Inactive)
REMARK    1  A    between atoms: _1  and  _3
REMARK    2  A    between atoms: _3  and  _4
REMARK    3  A    between atoms: _3  and  _6
REMARK    4  A    between atoms: _6  and  _7
REMARK    5  A    between atoms: _10  and  _12
REMARK    6  A    between atoms: _12  and  _13
REMARK    7  A    between atoms: _12  and  _15
REMARK    8  A    between atoms: _15  and  _16
REMARK    9  A    between atoms: _16  and  _17
REMARK   10  A    between atoms: _20  and  _22
REMARK   11  A    between atoms: _22  and  _23
REMARK   12  A    between atoms: _25  and  _27
REMARK   13  A    between atoms: _27  and  _28
REMARK   14  A    between atoms: _27  and  _30
REMARK   15  A    between atoms: _32  and  _34
REMARK   16  A    between atoms: _34  and  _35
REMARK   17  A    between atoms: _34  and  _37
REMARK   18  A    between atoms: _37  and  _38
REMARK   19  A    between atoms: _41  and  _43
REMARK   20  A    between atoms: _43  and  _44
REMARK   21  A    between atoms: _43  and  _46
REMARK   22  A    between atoms: _49  and  _51
REMARK   23  A    between atoms: _51  and  _52
REMARK   24  A    between atoms: _55  and  _57
REMARK   25  A    between atoms: _57  and  _58
REMARK   26  A    between atoms: _57  and  _60
REMARK   27  A    between atoms: _60  and  _61
REMARK   28  A    between atoms: _63  and  _65
REMARK   29  A    between atoms: _65  and  _66
REMARK   30  A    between atoms: _65  and  _68
REMARK   31  A    between atoms: _68  and  _69
REMARK   32  A    between atoms: _72  and  _74
REMARK   33  A    between atoms: _74  and  _75
REMARK   34  A    between atoms: _74  and  _77
REMARK   35  A    between atoms: _77  and  _78
REMARK   36  A    between atoms: _83  and  _85
REMARK   37  A    between atoms: _85  and  _86
REMARK   38  A    between atoms: _85  and  _88
REMARK   39  A    between atoms: _88  and  _89
REMARK   40  A    between atoms: _89  and  _90
REMARK   41  A    between atoms: _90  and  _91
REMARK   42  A    between atoms: _100  and  _102
REMARK   43  A    between atoms: _102  and  _103
REMARK   44  A    between atoms: _105  and  _107
REMARK   45  A    between atoms: _107  and  _108
REMARK   46  A    between atoms: _107  and  _110
REMARK   47  A    between atoms: _113  and  _115
REMARK   48  A    between atoms: _115  and  _116
REMARK   49  A    between atoms: _115  and  _118
REMARK   50  A    between atoms: _118  and  _119
REMARK   51  A    between atoms: _122  and  _124
REMARK   52  A    between atoms: _124  and  _125
REMARK   53  A    between atoms: _124  and  _127
REMARK   54  A    between atoms: _127  and  _128
REMARK   55  A    between atoms: _128  and  _129
REMARK   56  A    between atoms: _129  and  _130
REMARK   57  A    between atoms: _130  and  _131
REMARK   58  A    between atoms: _135  and  _137
REMARK   59  A    between atoms: _137  and  _138
REMARK   60  A    between atoms: _137  and  _140
REMARK   61  A    between atoms: _140  and  _141
REMARK   62  A    between atoms: _141  and  _142
REMARK   63  A    between atoms: _142  and  _143
REMARK   64  A    between atoms: _143  and  _144
REMARK   65  A    between atoms: _148  and  _150
REMARK   66  A    between atoms: _150  and  _151
REMARK   67  A    between atoms: _150  and  _153
REMARK   68  A    between atoms: _153  and  _154
REMARK   69  A    between atoms: _159  and  _161
REMARK   70  A    between atoms: _161  and  _162
REMARK   71  A    between atoms: _161  and  _164
REMARK   72  A    between atoms: _164  and  _165
REMARK   73  A    between atoms: _170  and  _172
REMARK   74  A    between atoms: _172  and  _173
REMARK   75  A    between atoms: _176  and  _178
REMARK   76  A    between atoms: _178  and  _179
REMARK   77  A    between atoms: _178  and  _181
REMARK   78  A    between atoms: _181  and  _182
REMARK   79  A    between atoms: _187  and  _189
REMARK   80  A    between atoms: _189  and  _190
REMARK   81  A    between atoms: _193  and  _195
REMARK   82  A    between atoms: _195  and  _196
REMARK   83  A    between atoms: _199  and  _201
REMARK   84  A    between atoms: _201  and  _202
REMARK   85  A    between atoms: _201  and  _204
REMARK   86  A    between atoms: _204  and  _205
REMARK   87  A    between atoms: _210  and  _212
REMARK   88  A    between atoms: _212  and  _213
REMARK   89  A    between atoms: _212  and  _215
REMARK   90  A    between atoms: _215  and  _216
REMARK   91  A    between atoms: _219  and  _221
REMARK   92  A    between atoms: _221  and  _222
REMARK   93  A    between atoms: _224  and  _226
REMARK   94  A    between atoms: _226  and  _227
REMARK   95  A    between atoms: _226  and  _229
REMARK   96  A    between atoms: _229  and  _230
REMARK   97  A    between atoms: _230  and  _231
REMARK   98  A    between atoms: _234  and  _236
REMARK   99  A    between atoms: _236  and  _237
REMARK  100  A    between atoms: _236  and  _239
REMARK  101  A    between atoms: _239  and  _240
REMARK  102  A    between atoms: _242  and  _244
REMARK  103  A    between atoms: _244  and  _245
REMARK  104  A    between atoms: _244  and  _247
REMARK  105  A    between atoms: _247  and  _248
REMARK  106  A    between atoms: _251  and  _253
REMARK  107  A    between atoms: _253  and  _254
REMARK  108  A    between atoms: _253  and  _256
REMARK  109  A    between atoms: _256  and  _257
REMARK  110  A    between atoms: _257  and  _258
REMARK  111  A    between atoms: _260  and  _262
REMARK  112  A    between atoms: _262  and  _263
REMARK  113  A    between atoms: _266  and  _268
REMARK  114  A    between atoms: _268  and  _269
REMARK  115  A    between atoms: _272  and  _274
REMARK  116  A    between atoms: _274  and  _275
REMARK  117  A    between atoms: _274  and  _277
REMARK  118  A    between atoms: _277  and  _278
REMARK  119  A    between atoms: _281  and  _283
REMARK  120  A    between atoms: _283  and  _284
REMARK  121  A    between atoms: _287  and  _289
REMARK  122  A    between atoms: _289  and  _290
REMARK  123  A    between atoms: _293  and  _295
REMARK  124  A    between atoms: _295  and  _296
REMARK  125  A    between atoms: _298  and  _300
REMARK  126  A    between atoms: _300  and  _301
REMARK  127  A    between atoms: _300  and  _303
REMARK  128  A    between atoms: _303  and  _304
REMARK  129  A    between atoms: _309  and  _311
REMARK  130  A    between atoms: _311  and  _312
REMARK  131  A    between atoms: _311  and  _314
REMARK  132  A    between atoms: _314  and  _315
REMARK  133  A    between atoms: _315  and  _316
REMARK  134  A    between atoms: _319  and  _321
REMARK  135  A    between atoms: _321  and  _322
REMARK  136  A    between atoms: _321  and  _324
REMARK  137  A    between atoms: _324  and  _325
REMARK  138  A    between atoms: _328  and  _330
REMARK  139  A    between atoms: _330  and  _331
REMARK  140  A    between atoms: _330  and  _333
REMARK  141  A    between atoms: _333  and  _334
REMARK  142  A    between atoms: _334  and  _335
REMARK  143  A    between atoms: _335  and  _336
REMARK  144  A    between atoms: _345  and  _347
REMARK  145  A    between atoms: _347  and  _348
REMARK  146  A    between atoms: _351  and  _352
REMARK  147  A    between atoms: _357  and  _359
REMARK  148  A    between atoms: _359  and  _360
REMARK  149  A    between atoms: _359  and  _362
REMARK  150  A    between atoms: _362  and  _363
REMARK  151  A    between atoms: _363  and  _364
REMARK  152  A    between atoms: _366  and  _368
REMARK  153  A    between atoms: _368  and  _369
REMARK  154  A    between atoms: _368  and  _371
REMARK  155  A    between atoms: _371  and  _372
REMARK  156  A    between atoms: _372  and  _373
REMARK  157  A    between atoms: _375  and  _377
REMARK  158  A    between atoms: _377  and  _378
REMARK  159  A    between atoms: _377  and  _380
REMARK  160  A    between atoms: _380  and  _381
REMARK  161  A    between atoms: _386  and  _388
REMARK  162  A    between atoms: _388  and  _389
REMARK  163  A    between atoms: _388  and  _391
REMARK  164  A    between atoms: _391  and  _392
REMARK  165  A    between atoms: _395  and  _397
REMARK  166  A    between atoms: _397  and  _398
REMARK  167  A    between atoms: _397  and  _400
REMARK  168  A    between atoms: _400  and  _401
REMARK  169  A    between atoms: _403  and  _405
REMARK  170  A    between atoms: _405  and  _406
REMARK  171  A    between atoms: _405  and  _408
REMARK  172  A    between atoms: _408  and  _409
REMARK  173  A    between atoms: _409  and  _410
REMARK  174  A    between atoms: _410  and  _411
REMARK  175  A    between atoms: _411  and  _412
REMARK  176  A    between atoms: _416  and  _418
REMARK  177  A    between atoms: _418  and  _419
REMARK  178  A    between atoms: _418  and  _421
REMARK  179  A    between atoms: _421  and  _422
REMARK  180  A    between atoms: _425  and  _427
REMARK  181  A    between atoms: _427  and  _428
REMARK  182  A    between atoms: _427  and  _430
REMARK  183  A    between atoms: _430  and  _431
REMARK  184  A    between atoms: _431  and  _432
REMARK  185  A    between atoms: _435  and  _437
REMARK  186  A    between atoms: _437  and  _438
REMARK  187  A    between atoms: _441  and  _443
REMARK  188  A    between atoms: _443  and  _444
REMARK  189  A    between atoms: _443  and  _446
REMARK  190  A    between atoms: _449  and  _451
REMARK  191  A    between atoms: _451  and  _452
REMARK  192  A    between atoms: _451  and  _454
REMARK  193  A    between atoms: _454  and  _455
REMARK  194  A    between atoms: _457  and  _459
REMARK  195  A    between atoms: _459  and  _460
REMARK  196  A    between atoms: _462  and  _464
REMARK  197  A    between atoms: _464  and  _465
REMARK  198  A    between atoms: _464  and  _467
REMARK  199  A    between atoms: _467  and  _468
REMARK  200  A    between atoms: _473  and  _475
REMARK  201  A    between atoms: _475  and  _476
REMARK  202  A    between atoms: _475  and  _478
REMARK  203  A    between atoms: _478  and  _479
REMARK  204  A    between atoms: _484  and  _485
REMARK  205  A    between atoms: _487  and  _489
REMARK  206  A    between atoms: _489  and  _490
REMARK  207  A    between atoms: _489  and  _492
REMARK  208  A    between atoms: _494  and  _496
REMARK  209  A    between atoms: _496  and  _497
REMARK  210  A    between atoms: _496  and  _499
REMARK  211  A    between atoms: _499  and  _500
REMARK  212  A    between atoms: _503  and  _505
REMARK  213  A    between atoms: _505  and  _506
REMARK  214  A    between atoms: _505  and  _508
REMARK  215  A    between atoms: _508  and  _509
REMARK  216  A    between atoms: _512  and  _514
REMARK  217  A    between atoms: _514  and  _515
REMARK  218  A    between atoms: _514  and  _517
REMARK  219  A    between atoms: _517  and  _518
REMARK  220  A    between atoms: _518  and  _519
REMARK  221  A    between atoms: _519  and  _520
REMARK  222  A    between atoms: _520  and  _521
REMARK  223  A    between atoms: _525  and  _527
REMARK  224  A    between atoms: _527  and  _528
REMARK  225  A    between atoms: _527  and  _530
REMARK  226  A    between atoms: _530  and  _531
REMARK  227  A    between atoms: _531  and  _532
REMARK  228  A    between atoms: _532  and  _533
REMARK  229  A    between atoms: _533  and  _534
REMARK  230  A    between atoms: _538  and  _540
REMARK  231  A    between atoms: _540  and  _541
REMARK  232  A    between atoms: _540  and  _543
REMARK  233  A    between atoms: _543  and  _544
REMARK  234  A    between atoms: _544  and  _545
REMARK  235  A    between atoms: _545  and  _546
REMARK  236  A    between atoms: _555  and  _557
REMARK  237  A    between atoms: _557  and  _558
REMARK  238  A    between atoms: _557  and  _560
REMARK  239  A    between atoms: _560  and  _561
REMARK  240  A    between atoms: _564  and  _566
REMARK  241  A    between atoms: _566  and  _567
REMARK  242  A    between atoms: _570  and  _572
REMARK  243  A    between atoms: _572  and  _573
REMARK  244  A    between atoms: _572  and  _575
REMARK  245  A    between atoms: _575  and  _576
REMARK  246  A    between atoms: _576  and  _577
REMARK                            x       y       z     vdW  Elec       q    Type
REMARK                         _______ _______ _______ _____ _____    ______ ____
ROOT
ATOM      1  C   THR A   1      27.484   5.923 -15.382  0.00  0.00    +0.241 C 
ATOM      2  O   THR A   1      27.805   7.101 -15.285  0.00  0.00    -0.274 OA
ATOM      3  N   GLU A   2      28.077   5.065 -16.207  0.00  0.00    -0.298 N 
ATOM      4  H   GLU A   2      27.741   4.081 -16.222  0.00  0.00    +0.150 HD
ENDROOT
BRANCH   1   5
ATOM      5  CA  THR A   1      26.333   5.378 -14.546  0.00  0.00    +0.172 C 
BRANCH   5   6
ATOM      6  N   THR A   1      25.428   4.613 -15.398  0.00  0.00    -0.236 NA
ATOM      7  H   THR A   1      25.413   3.577 -15.304  0.00  0.00    +0.142 HD
ENDBRANCH   5   6
BRANCH   5   8
ATOM      8  CB  THR A   1      26.838   4.489 -13.369  0.00  0.00    +0.135 C 
ATOM      9  CG2 THR A   1      27.876   5.201 -12.524  0.00  0.00    +0.034 C 
BRANCH   8  10
ATOM     10  OG1 THR A   1      25.761   4.252 -12.447  0.00  0.00    -0.383 OA
ATOM     11  HG1 THR A   1      25.022   3.789 -12.916  0.00  0.00    +0.210 HD
ENDBRANCH   8  10
ENDBRANCH   5   8
ENDBRANCH   1   5
BRANCH   3  12
ATOM     12  CA  GLU A   2      29.183   5.438 -17.098  0.00  0.00    +0.137 C 
BRANCH  12  13
ATOM     13  C   GLU A   2      28.813   6.584 -18.035  0.00  0.00    +0.227 C 
ATOM     14  O   GLU A   2      29.606   7.507 -18.224  0.00  0.00    -0.286 OA
ENDBRANCH  12  13
BRANCH  12  15
ATOM     15  CB  GLU A   2      29.624   4.244 -17.949  0.00  0.00    +0.039 C 
BRANCH  15  16
ATOM     16  CG  GLU A   2      30.713   3.386 -17.321  0.00  0.00    +0.116 C 
BRANCH  16  17
ATOM     17  CD  GLU A   2      31.193   2.286 -18.252  0.00  0.00    +0.365 C 
ATOM     18  OE2 GLU A   2      31.310   1.123 -17.795  0.00  0.00    -0.246 OA
ATOM     19  OE1 GLU A   2      31.453   2.581 -19.447  0.00  0.00    -0.246 OA
ENDBRANCH  16  17
ENDBRANCH  15  16
ENDBRANCH  12  15
ENDBRANCH   3  12
TORSDOF 9
REMARK  Name = ../refined-set-2016/3cct/3cct_pocket.pdb
REMARK  246 active torsions:
REMARK  status: ('A' for Active; 'I' for Inactive)
REMARK    1  A    between atoms: _1  and  _3
REMARK    2  A    between atoms: _3  and  _4
REMARK    3  A    between atoms: _3  and  _6
REMARK    4  A    between atoms: _6  and  _7
REMARK    5  A    between atoms: _10  and  _12
REMARK    6  A    between atoms: _12  and  _13
REMARK    7  A    between atoms: _12  and  _15
REMARK    8  A    between atoms: _15  and  _16
REMARK    9  A    between atoms: _16  and  _17
REMARK   10  A    between atoms: _20  and  _22
REMARK   11  A    between atoms: _22  and  _23
REMARK   12  A    between atoms: _25  and  _27
REMARK   13  A    between atoms: _27  and  _28
REMARK   14  A    between atoms: _27  and  _30
REMARK   15  A    between atoms: _32  and  _34
REMARK   16  A    between atoms: _34  and  _35
REMARK   17  A    between atoms: _34  and  _37
REMARK   18  A    between atoms: _37  and  _38
REMARK   19  A    between atoms: _41  and  _43
REMARK   20  A    between atoms: _43  and  _44
REMARK   21  A    between atoms: _43  and  _46
REMARK   22  A    between atoms: _49  and  _51
REMARK   23  A    between atoms: _51  and  _52
REMARK   24  A    between atoms: _55  and  _57
REMARK   25  A    between atoms: _57  and  _58
REMARK   26  A    between atoms: _57  and  _60
REMARK   27  A    between atoms: _60  and  _61
REMARK   28  A    between atoms: _63  and  _65
REMARK   29  A    between atoms: _65  and  _66
REMARK   30  A    between atoms: _65  and  _68
REMARK   31  A    between atoms: _68  and  _69
REMARK   32  A    between atoms: _72  and  _74
REMARK   33  A    between atoms: _74  and  _75
REMARK   34  A    between atoms: _74  and  _77
REMARK   35  A    between atoms: _77  and  _78
REMARK   36  A    between atoms: _83  and  _85
REMARK   37  A    between atoms: _85  and  _86
REMARK   38  A    between atoms: _85  and  _88
REMARK   39  A    between atoms: _88  and  _89
REMARK   40  A    between atoms: _89  and  _90
REMARK   41  A    between atoms: _90  and  _91
REMARK   42  A    between atoms: _100  and  _102
REMARK   43  A    between atoms: _102  and  _103
REMARK   44  A    between atoms: _105  and  _107
REMARK   45  A    between atoms: _107  and  _108
REMARK   46  A    between atoms: _107  and  _110
REMARK   47  A    between atoms: _113  and  _115
REMARK   48  A    between atoms: _115  and  _116
REMARK   49  A    between atoms: _115  and  _118
REMARK   50  A    between atoms: _118  and  _119
REMARK   51  A    between atoms: _122  and  _124
REMARK   52  A    between atoms: _124  and  _125
REMARK   53  A    between atoms: _124  and  _127
REMARK   54  A    between atoms: _127  and  _128
REMARK   55  A    between atoms: _128  and  _129
REMARK   56  A    between atoms: _129  and  _130
REMARK   57  A    between atoms: _130  and  _131
REMARK   58  A    between atoms: _135  and  _137
REMARK   59  A    between atoms: _137  and  _138
REMARK   60  A    between atoms: _137  and  _140
REMARK   61  A    between atoms: _140  and  _141
REMARK   62  A    between atoms: _141  and  _142
REMARK   63  A    between atoms: _142  and  _143
REMARK   64  A    between atoms: _143  and  _144
REMARK   65  A    between atoms: _148  and  _150
REMARK   66  A    between atoms: _150  and  _151
REMARK   67  A    between atoms: _150  and  _153
REMARK   68  A    between atoms: _153  and  _154
REMARK   69  A    between atoms: _159  and  _161
REMARK   70  A    between atoms: _161  and  _162
REMARK   71  A    between atoms: _161  and  _164
REMARK   72  A    between atoms: _164  and  _165
REMARK   73  A    between atoms: _170  and  _172
REMARK   74  A    between atoms: _172  and  _173
REMARK   75  A    between atoms: _176  and  _178
REMARK   76  A    between atoms: _178  and  _179
REMARK   77  A    between atoms: _178  and  _181
REMARK   78  A    between atoms: _181  and  _182
REMARK   79  A    between atoms: _187  and  _189
REMARK   80  A    between atoms: _189  and  _190
REMARK   81  A    between atoms: _193  and  _195
REMARK   82  A    between atoms: _195  and  _196
REMARK   83  A    between atoms: _199  and  _201
REMARK   84  A    between atoms: _201  and  _202
REMARK   85  A    between atoms: _201  and  _204
REMARK   86  A    between atoms: _204  and  _205
REMARK   87  A    between atoms: _210  and  _212
REMARK   88  A    between atoms: _212  and  _213
REMARK   89  A    between atoms: _212  and  _215
REMARK   90  A    between atoms: _215  and  _216
REMARK   91  A    between atoms: _219  and  _221
REMARK   92  A    between atoms: _221  and  _222
REMARK   93  A    between atoms: _224  and  _226
REMARK   94  A    between atoms: _226  and  _227
REMARK   95  A    between atoms: _226  and  _229
REMARK   96  A    between atoms: _229  and  _230
REMARK   97  A    between atoms: _230  and  _231
REMARK   98  A    between atoms: _234  and  _236
REMARK   99  A    between atoms: _236  and  _237
REMARK  100  A    between atoms: _236  and  _239
REMARK  101  A    between atoms: _239  and  _240
REMARK  102  A    between atoms: _242  and  _244
REMARK  103  A    between atoms: _244  and  _245
REMARK  104  A    between atoms: _244  and  _247
REMARK  105  A    between atoms: _247  and  _248
REMARK  106  A    between atoms: _251  and  _253
REMARK  107  A    between atoms: _253  and  _254
REMARK  108  A    between atoms: _253  and  _256
REMARK  109  A    between atoms: _256  and  _257
REMARK  110  A    between atoms: _257  and  _258
REMARK  111  A    between atoms: _260  and  _262
REMARK  112  A    between atoms: _262  and  _263
REMARK  113  A    between atoms: _266  and  _268
REMARK  114  A    between atoms: _268  and  _269
REMARK  115  A    between atoms: _272  and  _274
REMARK  116  A    between atoms: _274  and  _275
REMARK  117  A    between atoms: _274  and  _277
REMARK  118  A    between atoms: _277  and  _278
REMARK  119  A    between atoms: _281  and  _283
REMARK  120  A    between atoms: _283  and  _284
REMARK  121  A    between atoms: _287  and  _289
REMARK  122  A    between atoms: _289  and  _290
REMARK  123  A    between atoms: _293  and  _295
REMARK  124  A    between atoms: _295  and  _296
REMARK  125  A    between atoms: _298  and  _300
REMARK  126  A    between atoms: _300  and  _301
REMARK  127  A    between atoms: _300  and  _303
REMARK  128  A    between atoms: _303  and  _304
REMARK  129  A    between atoms: _309  and  _311
REMARK  130  A    between atoms: _311  and  _312
REMARK  131  A    between atoms: _311  and  _314
REMARK  132  A    between atoms: _314  and  _315
REMARK  133  A    between atoms: _315  and  _316
REMARK  134  A    between atoms: _319  and  _321
REMARK  135  A    between atoms: _321  and  _322
REMARK  136  A    between atoms: _321  and  _324
REMARK  137  A    between atoms: _324  and  _325
REMARK  138  A    between atoms: _328  and  _330
REMARK  139  A    between atoms: _330  and  _331
REMARK  140  A    between atoms: _330  and  _333
REMARK  141  A    between atoms: _333  and  _334
REMARK  142  A    between atoms: _334  and  _335
REMARK  143  A    between atoms: _335  and  _336
REMARK  144  A    between atoms: _345  and  _347
REMARK  145  A    between atoms: _347  and  _348
REMARK  146  A    between atoms: _351  and  _352
REMARK  147  A    between atoms: _357  and  _359
REMARK  148  A    between atoms: _359  and  _360
REMARK  149  A    between atoms: _359  and  _362
REMARK  150  A    between atoms: _362  and  _363
REMARK  151  A    between atoms: _363  and  _364
REMARK  152  A    between atoms: _366  and  _368
REMARK  153  A    between atoms: _368  and  _369
REMARK  154  A    between atoms: _368  and  _371
REMARK  155  A    between atoms: _371  and  _372
REMARK  156  A    between atoms: _372  and  _373
REMARK  157  A    between atoms: _375  and  _377
REMARK  158  A    between atoms: _377  and  _378
REMARK  159  A    between atoms: _377  and  _380
REMARK  160  A    between atoms: _380  and  _381
REMARK  161  A    between atoms: _386  and  _388
REMARK  162  A    between atoms: _388  and  _389
REMARK  163  A    between atoms: _388  and  _391
REMARK  164  A    between atoms: _391  and  _392
REMARK  165  A    between atoms: _395  and  _397
REMARK  166  A    between atoms: _397  and  _398
REMARK  167  A    between atoms: _397  and  _400
REMARK  168  A    between atoms: _400  and  _401
REMARK  169  A    between atoms: _403  and  _405
REMARK  170  A    between atoms: _405  and  _406
REMARK  171  A    between atoms: _405  and  _408
REMARK  172  A    between atoms: _408  and  _409
REMARK  173  A    between atoms: _409  and  _410
REMARK  174  A    between atoms: _410  and  _411
REMARK  175  A    between atoms: _411  and  _412
REMARK  176  A    between atoms: _416  and  _418
REMARK  177  A    between atoms: _418  and  _419
REMARK  178  A    between atoms: _418  and  _421
REMARK  179  A    between atoms: _421  and  _422
REMARK  180  A    between atoms: _425  and  _427
REMARK  181  A    between atoms: _427  and  _428
REMARK  182  A    between atoms: _427  and  _430
REMARK  183  A    between atoms: _430  and  _431
REMARK  184  A    between atoms: _431  and  _432
REMARK  185  A    between atoms: _435  and  _437
REMARK  186  A    between atoms: _437  and  _438
REMARK  187  A    between atoms: _441  and  _443
REMARK  188  A    between atoms: _443  and  _444
REMARK  189  A    between atoms: _443  and  _446
REMARK  190  A    between atoms: _449  and  _451
REMARK  191  A    between atoms: _451  and  _452
REMARK  192  A    between atoms: _451  and  _454
REMARK  193  A    between atoms: _454  and  _455
REMARK  194  A    between atoms: _457  and  _459
REMARK  195  A    between atoms: _459  and  _460
REMARK  196  A    between atoms: _462  and  _464
REMARK  197  A    between atoms: _464  and  _465
REMARK  198  A    between atoms: _464  and  _467
REMARK  199  A    between atoms: _467  and  _468
REMARK  200  A    between atoms: _473  and  _475
REMARK  201  A    between atoms: _475  and  _476
REMARK  202  A    between atoms: _475  and  _478
REMARK  203  A    between atoms: _478  and  _479
REMARK  204  A    between atoms: _484  and  _485
REMARK  205  A    between atoms: _487  and  _489
REMARK  206  A    between atoms: _489  and  _490
REMARK  207  A    between atoms: _489  and  _492
REMARK  208  A    between atoms: _494  and  _496
REMARK  209  A    between atoms: _496  and  _497
REMARK  210  A    between atoms: _496  and  _499
REMARK  211  A    between atoms: _499  and  _500
REMARK  212  A    between atoms: _503  and  _505
REMARK  213  A    between atoms: _505  and  _506
REMARK  214  A    between atoms: _505  and  _508
REMARK  215  A    between atoms: _508  and  _509
REMARK  216  A    between atoms: _512  and  _514
REMARK  217  A    between atoms: _514  and  _515
REMARK  218  A    between atoms: _514  and  _517
REMARK  219  A    between atoms: _517  and  _518
REMARK  220  A    between atoms: _518  and  _519
REMARK  221  A    between atoms: _519  and  _520
REMARK  222  A    between atoms: _520  and  _521
REMARK  223  A    between atoms: _525  and  _527
REMARK  224  A    between atoms: _527  and  _528
REMARK  225  A    between atoms: _527  and  _530
REMARK  226  A    between atoms: _530  and  _531
REMARK  227  A    between atoms: _531  and  _532
REMARK  228  A    between atoms: _532  and  _533
REMARK  229  A    between atoms: _533  and  _534
REMARK  230  A    between atoms: _538  and  _540
REMARK  231  A    between atoms: _540  and  _541
REMARK  232  A    between atoms: _540  and  _543
REMARK  233  A    between atoms: _543  and  _544
REMARK  234  A    between atoms: _544  and  _545
REMARK  235  A    between atoms: _545  and  _546
REMARK  236  A    between atoms: _555  and  _557
REMARK  237  A    between atoms: _557  and  _558
REMARK  238  A    between atoms: _557  and  _560
REMARK  239  A    between atoms: _560  and  _561
REMARK  240  A    between atoms: _564  and  _566
REMARK  241  A    between atoms: _566  and  _567
REMARK  242  A    between atoms: _570  and  _572
REMARK  243  A    between atoms: _572  and  _573
REMARK  244  A    between atoms: _572  and  _575
REMARK  245  A    between atoms: _575  and  _576
REMARK  246  A    between atoms: _576  and  _577
REMARK                            x       y       z     vdW  Elec       q    Type
REMARK                         _______ _______ _______ _____ _____    ______ ____
ROOT
ATOM      1  C   TYR A   6      28.014   2.999  -2.413  0.00  0.00    +0.241 C 
ATOM      2  O   TYR A   6      26.992   3.576  -2.072  0.00  0.00    -0.273 OA
ATOM      3  N   CYS A   7      27.991   1.888  -3.138  0.00  0.00    -0.296 N 
ATOM      4  H   CYS A   7      28.886   1.407  -3.358  0.00  0.00    +0.150 HD
ENDROOT
BRANCH   1   5
ATOM      5  CA  TYR A   6      29.390   3.515  -1.963  0.00  0.00    +0.153 C 
BRANCH   5   8
ATOM      6  C   ASN A   5      31.046   1.747  -1.820  0.00  0.00    +0.241 C 
ATOM      7  O   ASN A   5      30.740   1.484  -0.666  0.00  0.00    -0.273 OA
ATOM      8  N   TYR A   6      30.450   2.701  -2.521  0.00  0.00    -0.297 N 
ATOM      9  H   TYR A   6      30.753   2.870  -3.501  0.00  0.00    +0.150 HD
BRANCH   6  10
ATOM     10  CA  ASN A   5      32.147   0.962  -2.521  0.00  0.00    +0.158 C 
BRANCH  10  13
ATOM     11  C   GLY A   4      33.295   2.815  -3.672  0.00  0.00    +0.243 C 
ATOM     12  O   GLY A   4      33.421   3.470  -2.645  0.00  0.00    -0.273 OA
ATOM     13  N   ASN A   5      32.694   1.625  -3.709  0.00  0.00    -0.297 N 
ATOM     14  H   ASN A   5      32.609   1.143  -4.627  0.00  0.00    +0.150 HD
BRANCH  11  15
ATOM     15  CA  GLY A   4      33.837   3.359  -4.983  0.00  0.00    +0.176 C 
BRANCH  15  17
ATOM     16  C   SER A   3      33.492   1.945  -6.923  0.00  0.00    +0.243 C 
ATOM     17  N   GLY A   4      33.075   2.918  -6.132  0.00  0.00    -0.295 N 
ATOM     18  H   GLY A   4      32.169   3.383  -6.342  0.00  0.00    +0.150 HD
ATOM     19  O   SER A   3      34.594   1.430  -6.808  0.00  0.00    -0.273 OA
BRANCH  16  20
ATOM     20  CA  SER A   3      32.508   1.459  -7.987  0.00  0.00    +0.178 C 
BRANCH  20  22
ATOM     21  C   VAL A   2      32.277   2.517 -10.197  0.00  0.00    +0.241 C 
ATOM     22  N   SER A   3      32.977   1.756  -9.344  0.00  0.00    -0.295 N 
ATOM     23  H   SER A   3      33.887   1.361  -9.657  0.00  0.00    +0.150 HD
ATOM     24  O   VAL A   2      31.097   2.806 -10.028  0.00  0.00    -0.273 OA
BRANCH  21  25
ATOM     25  CA  VAL A   2      33.028   3.037 -11.428  0.00  0.00    +0.148 C 
BRANCH  25  28
ATOM     26  C   ALA A   1      34.953   3.872 -10.194  0.00  0.00    +0.238 C 
ATOM     27  O   ALA A   1      34.257   4.614  -9.497  0.00  0.00    -0.274 OA
ATOM     28  N   VAL A   2      34.457   3.094 -11.149  0.00  0.00    -0.297 N 
ATOM     29  H   VAL A   2      35.106   2.509 -11.713  0.00  0.00    +0.150 HD
BRANCH  26  30
ATOM     30  CA  ALA A   1      36.449   3.812 -10.014  0.00  0.00    +0.145 C 
ATOM     31  CB  ALA A   1      36.811   3.034  -8.765  0.00  0.00    +0.028 C 
BRANCH  30  32
ATOM     32  N   ALA A   1      36.995   5.162  -9.953  0.00  0.00    -0.238 NA
ATOM     33  H   ALA A   1      36.367   5.953  -9.703  0.00  0.00    +0.142 HD
ENDBRANCH  30  32
ENDBRANCH  26  30
ENDBRANCH  25  28
BRANCH  25  34
ATOM     34  CB  VAL A   2      32.724   2.190 -12.703  0.00  0.00    +0.027 C 
ATOM     35  CG2 VAL A   2      33.195   0.746 -12.547  0.00  0.00    +0.002 C 
ATOM     36  CG1 VAL A   2      31.242   2.242 -13.040  0.00  0.00    +0.002 C 
ENDBRANCH  25  34
ENDBRANCH  21  25
ENDBRANCH  20  22
BRANCH  20  37
ATOM     37  CB  SER A   3      32.291  -0.045  -7.804  0.00  0.00    +0.166 C 
BRANCH  37  38
ATOM     38  OG  SER A   3      31.917  -0.329  -6.465  0.00  0.00    -0.380 OA
ATOM     39  H   SER A   3      31.780  -1.304  -6.362  0.00  0.00    +0.211 HD
ENDBRANCH  37  38
ENDBRANCH  20  37
ENDBRANCH  16  20
ENDBRANCH  15  17
ENDBRANCH  11  15
ENDBRANCH  10  13
BRANCH  10  40
ATOM     40  CB  ASN A   5      33.266   0.639  -1.518  0.00  0.00    +0.114 C 
BRANCH  40  41
ATOM     41  CG  ASN A   5      33.926  -0.670  -1.791  0.00  0.00    +0.222 C 
ATOM     42  ND2 ASN A   5      34.798  -1.085  -0.877  0.00  0.00    -0.329 N 
ATOM     43 HD21 ASN A   5      34.981  -0.507  -0.032  0.00  0.00    +0.145 HD
ATOM     44 HD22 ASN A   5      35.297  -1.988  -1.007  0.00  0.00    +0.145 HD
ATOM     45  OD1 ASN A   5      33.669  -1.316  -2.815  0.00  0.00    -0.275 OA
ENDBRANCH  40  41
ENDBRANCH  10  40
ENDBRANCH   6  10
ENDBRANCH   5   8
BRANCH   5  46
ATOM     46  CB  TYR A   6      29.589   4.977  -2.378  0.00  0.00    +0.055 C 
BRANCH  46  47
ATOM     47  CG  TYR A   6      28.880   5.969  -1.503  0.00  0.00    -0.020 A 
ATOM     48  CD2 TYR A   6      29.114   6.001  -0.132  0.00  0.00    -0.001 A 
ATOM     49  CE2 TYR A   6      28.461   6.913   0.690  0.00  0.00    +0.036 A 
ATOM     50  CZ  TYR A   6      27.562   7.800   0.139  0.00  0.00    +0.134 A 
ATOM     51  CE1 TYR A   6      27.303   7.788  -1.216  0.00  0.00    +0.036 A 
ATOM     52  CD1 TYR A   6      27.960   6.874  -2.034  0.00  0.00    -0.001 A 
BRANCH  50  53
ATOM     53  OH  TYR A   6      26.891   8.699   0.946  0.00  0.00    -0.506 OA
ATOM     54  HH  TYR A   6      25.917   8.535   0.882  0.00  0.00    +0.292 HD
ENDBRANCH  50  53
ENDBRANCH  46  47
ENDBRANCH   5  46
ENDBRANCH   1   5
BRANCH   3  55
ATOM     55  CA  CYS A   7      26.731   1.321  -3.638  0.00  0.00    +0.160 C 
BRANCH  55  56
ATOM     56  C   CYS A   7      25.774   0.865  -2.520  0.00  0.00    +0.242 C 
ATOM     57  N   THR A   8      26.145  -0.061  -1.631  0.00  0.00    -0.295 N 
ATOM     58  H   THR A   8      25.461  -0.282  -0.879  0.00  0.00    +0.150 HD
ATOM     59  O   CYS A   7      24.666   1.398  -2.452  0.00  0.00    -0.273 OA
BRANCH  57  60
ATOM     60  CA  THR A   8      27.404  -0.794  -1.601  0.00  0.00    +0.176 C 
BRANCH  60  61
ATOM     61  C   THR A   8      27.063  -2.202  -2.012  0.00  0.00    +0.243 C 
ATOM     62  O   THR A   8      26.068  -2.736  -1.564  0.00  0.00    -0.273 OA
ATOM     63  N   ASP A   9      27.879  -2.805  -2.858  0.00  0.00    -0.296 N 
ATOM     64  H   ASP A   9      28.743  -2.316  -3.168  0.00  0.00    +0.150 HD
BRANCH  63  65
ATOM     65  CA  ASP A   9      27.596  -4.133  -3.363  0.00  0.00    +0.160 C 
BRANCH  65  66
ATOM     66  C   ASP A   9      28.442  -5.178  -2.661  0.00  0.00    +0.241 C 
ATOM     67  N   LYS A  10      27.762  -6.137  -2.035  0.00  0.00    -0.297 N 
ATOM     68  H   LYS A  10      26.731  -6.033  -1.948  0.00  0.00    +0.150 HD
ATOM     69  O   ASP A   9      29.672  -5.104  -2.671  0.00  0.00    -0.273 OA
BRANCH  67  70
ATOM     70  CA  LYS A  10      28.387  -7.326  -1.465  0.00  0.00    +0.149 C 
BRANCH  70  71
ATOM     71  C   LYS A  10      29.386  -7.082  -0.314  0.00  0.00    +0.241 C 
ATOM     72  N   LYS A  11      29.233  -5.963   0.383  0.00  0.00    -0.298 N 
ATOM     73  H   LYS A  11      28.589  -5.233   0.018  0.00  0.00    +0.150 HD
ATOM     74  O   LYS A  10      30.266  -7.892  -0.072  0.00  0.00    -0.273 OA
BRANCH  72  75
ATOM     75  CA  LYS A  11      29.932  -5.715   1.641  0.00  0.00    +0.137 C 
BRANCH  75  76
ATOM     76  C   LYS A  11      28.899  -5.159   2.615  0.00  0.00    +0.227 C 
ATOM     77  O   LYS A  11      27.992  -4.473   2.184  0.00  0.00    -0.286 OA
ENDBRANCH  75  76
BRANCH  75  78
ATOM     78  CB  LYS A  11      31.057  -4.694   1.460  0.00  0.00    +0.028 C 
BRANCH  78  79
ATOM     79  CG  LYS A  11      32.332  -5.239   0.833  0.00  0.00    -0.000 C 
BRANCH  79  80
ATOM     80  CD  LYS A  11      32.348  -5.139  -0.696  0.00  0.00    -0.024 C 
BRANCH  80  81
ATOM     81  CE  LYS A  11      32.237  -3.711  -1.222  0.00  0.00    -0.086 C 
BRANCH  81  82
ATOM     82  NZ  LYS A  11      32.273  -3.696  -2.711  0.00  0.00    +0.380 N 
ATOM     83  HZ1 LYS A  11      33.170  -4.108  -3.039  0.00  0.00    -0.089 HD
ATOM     84  HZ2 LYS A  11      32.196  -2.715  -3.049  0.00  0.00    -0.089 HD
ATOM     85  HZ3 LYS A  11      31.478  -4.255  -3.081  0.00  0.00    -0.089 HD
ENDBRANCH  81  82
ENDBRANCH  80  81
ENDBRANCH  79  80
ENDBRANCH  78  79
ENDBRANCH  75  78
ENDBRANCH  72  75
ENDBRANCH  70  71
BRANCH  70  86
ATOM     86  CB  LYS A  10      29.017  -8.150  -2.586  0.00  0.00    +0.029 C 
BRANCH  86  87
ATOM     87  CG  LYS A  10      28.000  -8.584  -3.647  0.00  0.00    +0.000 C 
BRANCH  87  88
ATOM     88  CD  LYS A  10      28.692  -9.060  -4.905  0.00  0.00    -0.024 C 
BRANCH  88  89
ATOM     89  CE  LYS A  10      27.694  -9.596  -5.936  0.00  0.00    -0.086 C 
BRANCH  89  90
ATOM     90  NZ  LYS A  10      28.371 -10.112  -7.135  0.00  0.00    +0.380 N 
ATOM     91  HZ1 LYS A  10      29.010 -10.887  -6.865  0.00  0.00    -0.089 HD
ATOM     92  HZ2 LYS A  10      28.920  -9.348  -7.578  0.00  0.00    -0.089 HD
ATOM     93  HZ3 LYS A  10      27.661 -10.465  -7.808  0.00  0.00    -0.089 HD
ENDBRANCH  89  90
ENDBRANCH  88  89
ENDBRANCH  87  88
ENDBRANCH  86  87
ENDBRANCH  70  86
ENDBRANCH  67  70
ENDBRANCH  65  66
BRANCH  65  94
ATOM     94  CB  ASP A   9      27.841  -4.189  -4.861  0.00  0.00    +0.143 C 
BRANCH  94  95
ATOM     95  CG  ASP A   9      27.387  -5.495  -5.472  0.00  0.00    +0.367 C 
ATOM     96  OD2 ASP A   9      26.279  -5.973  -5.130  0.00  0.00    -0.246 OA
ATOM     97  OD1 ASP A   9      28.086  -6.108  -6.304  0.00  0.00    -0.246 OA
ENDBRANCH  94  95
ENDBRANCH  65  94
ENDBRANCH  63  65
ENDBRANCH  60  61
BRANCH  60  98
ATOM     98  CB  THR A   8      27.960  -0.800  -0.164  0.00  0.00    +0.137 C 
ATOM     99  CG2 THR A   8      29.266  -1.582  -0.060  0.00  0.00    +0.034 C 
BRANCH  98 100
ATOM    100  OG1 THR A   8      28.300   0.532   0.221  0.00  0.00    -0.382 OA
ATOM    101  HG1 THR A   8      28.986   0.888  -0.397  0.00  0.00    +0.210 HD
ENDBRANCH  98 100
ENDBRANCH  60  98
ENDBRANCH  57  60
ENDBRANCH  55  56
BRANCH  55 102
ATOM    102  CB  CYS A   7      26.974   0.210  -4.667  0.00  0.00    +0.098 C 
ATOM    103  SG  CYS A   7      28.504   0.388  -5.614  0.00  0.00    -0.080 S 
ENDBRANCH  55 102
ENDBRANCH   3  55
TORSDOF 45
REMARK  Name = ../refined-set-2016/3cct/3cct_pocket.pdb
REMARK  246 active torsions:
REMARK  status: ('A' for Active; 'I' for Inactive)
REMARK    1  A    between atoms: _1  and  _3
REMARK    2  A    between atoms: _3  and  _4
REMARK    3  A    between atoms: _3  and  _6
REMARK    4  A    between atoms: _6  and  _7
REMARK    5  A    between atoms: _10  and  _12
REMARK    6  A    between atoms: _12  and  _13
REMARK    7  A    between atoms: _12  and  _15
REMARK    8  A    between atoms: _15  and  _16
REMARK    9  A    between atoms: _16  and  _17
REMARK   10  A    between atoms: _20  and  _22
REMARK   11  A    between atoms: _22  and  _23
REMARK   12  A    between atoms: _25  and  _27
REMARK   13  A    between atoms: _27  and  _28
REMARK   14  A    between atoms: _27  and  _30
REMARK   15  A    between atoms: _32  and  _34
REMARK   16  A    between atoms: _34  and  _35
REMARK   17  A    between atoms: _34  and  _37
REMARK   18  A    between atoms: _37  and  _38
REMARK   19  A    between atoms: _41  and  _43
REMARK   20  A    between atoms: _43  and  _44
REMARK   21  A    between atoms: _43  and  _46
REMARK   22  A    between atoms: _49  and  _51
REMARK   23  A    between atoms: _51  and  _52
REMARK   24  A    between atoms: _55  and  _57
REMARK   25  A    between atoms: _57  and  _58
REMARK   26  A    between atoms: _57  and  _60
REMARK   27  A    between atoms: _60  and  _61
REMARK   28  A    between atoms: _63  and  _65
REMARK   29  A    between atoms: _65  and  _66
REMARK   30  A    between atoms: _65  and  _68
REMARK   31  A    between atoms: _68  and  _69
REMARK   32  A    between atoms: _72  and  _74
REMARK   33  A    between atoms: _74  and  _75
REMARK   34  A    between atoms: _74  and  _77
REMARK   35  A    between atoms: _77  and  _78
REMARK   36  A    between atoms: _83  and  _85
REMARK   37  A    between atoms: _85  and  _86
REMARK   38  A    between atoms: _85  and  _88
REMARK   39  A    between atoms: _88  and  _89
REMARK   40  A    between atoms: _89  and  _90
REMARK   41  A    between atoms: _90  and  _91
REMARK   42  A    between atoms: _100  and  _102
REMARK   43  A    between atoms: _102  and  _103
REMARK   44  A    between atoms: _105  and  _107
REMARK   45  A    between atoms: _107  and  _108
REMARK   46  A    between atoms: _107  and  _110
REMARK   47  A    between atoms: _113  and  _115
REMARK   48  A    between atoms: _115  and  _116
REMARK   49  A    between atoms: _115  and  _118
REMARK   50  A    between atoms: _118  and  _119
REMARK   51  A    between atoms: _122  and  _124
REMARK   52  A    between atoms: _124  and  _125
REMARK   53  A    between atoms: _124  and  _127
REMARK   54  A    between atoms: _127  and  _128
REMARK   55  A    between atoms: _128  and  _129
REMARK   56  A    between atoms: _129  and  _130
REMARK   57  A    between atoms: _130  and  _131
REMARK   58  A    between atoms: _135  and  _137
REMARK   59  A    between atoms: _137  and  _138
REMARK   60  A    between atoms: _137  and  _140
REMARK   61  A    between atoms: _140  and  _141
REMARK   62  A    between atoms: _141  and  _142
REMARK   63  A    between atoms: _142  and  _143
REMARK   64  A    between atoms: _143  and  _144
REMARK   65  A    between atoms: _148  and  _150
REMARK   66  A    between atoms: _150  and  _151
REMARK   67  A    between atoms: _150  and  _153
REMARK   68  A    between atoms: _153  and  _154
REMARK   69  A    between atoms: _159  and  _161
REMARK   70  A    between atoms: _161  and  _162
REMARK   71  A    between atoms: _161  and  _164
REMARK   72  A    between atoms: _164  and  _165
REMARK   73  A    between atoms: _170  and  _172
REMARK   74  A    between atoms: _172  and  _173
REMARK   75  A    between atoms: _176  and  _178
REMARK   76  A    between atoms: _178  and  _179
REMARK   77  A    between atoms: _178  and  _181
REMARK   78  A    between atoms: _181  and  _182
REMARK   79  A    between atoms: _187  and  _189
REMARK   80  A    between atoms: _189  and  _190
REMARK   81  A    between atoms: _193  and  _195
REMARK   82  A    between atoms: _195  and  _196
REMARK   83  A    between atoms: _199  and  _201
REMARK   84  A    between atoms: _201  and  _202
REMARK   85  A    between atoms: _201  and  _204
REMARK   86  A    between atoms: _204  and  _205
REMARK   87  A    between atoms: _210  and  _212
REMARK   88  A    between atoms: _212  and  _213
REMARK   89  A    between atoms: _212  and  _215
REMARK   90  A    between atoms: _215  and  _216
REMARK   91  A    between atoms: _219  and  _221
REMARK   92  A    between atoms: _221  and  _222
REMARK   93  A    between atoms: _224  and  _226
REMARK   94  A    between atoms: _226  and  _227
REMARK   95  A    between atoms: _226  and  _229
REMARK   96  A    between atoms: _229  and  _230
REMARK   97  A    between atoms: _230  and  _231
REMARK   98  A    between atoms: _234  and  _236
REMARK   99  A    between atoms: _236  and  _237
REMARK  100  A    between atoms: _236  and  _239
REMARK  101  A    between atoms: _239  and  _240
REMARK  102  A    between atoms: _242  and  _244
REMARK  103  A    between atoms: _244  and  _245
REMARK  104  A    between atoms: _244  and  _247
REMARK  105  A    between atoms: _247  and  _248
REMARK  106  A    between atoms: _251  and  _253
REMARK  107  A    between atoms: _253  and  _254
REMARK  108  A    between atoms: _253  and  _256
REMARK  109  A    between atoms: _256  and  _257
REMARK  110  A    between atoms: _257  and  _258
REMARK  111  A    between atoms: _260  and  _262
REMARK  112  A    between atoms: _262  and  _263
REMARK  113  A    between atoms: _266  and  _268
REMARK  114  A    between atoms: _268  and  _269
REMARK  115  A    between atoms: _272  and  _274
REMARK  116  A    between atoms: _274  and  _275
REMARK  117  A    between atoms: _274  and  _277
REMARK  118  A    between atoms: _277  and  _278
REMARK  119  A    between atoms: _281  and  _283
REMARK  120  A    between atoms: _283  and  _284
REMARK  121  A    between atoms: _287  and  _289
REMARK  122  A    between atoms: _289  and  _290
REMARK  123  A    between atoms: _293  and  _295
REMARK  124  A    between atoms: _295  and  _296
REMARK  125  A    between atoms: _298  and  _300
REMARK  126  A    between atoms: _300  and  _301
REMARK  127  A    between atoms: _300  and  _303
REMARK  128  A    between atoms: _303  and  _304
REMARK  129  A    between atoms: _309  and  _311
REMARK  130  A    between atoms: _311  and  _312
REMARK  131  A    between atoms: _311  and  _314
REMARK  132  A    between atoms: _314  and  _315
REMARK  133  A    between atoms: _315  and  _316
REMARK  134  A    between atoms: _319  and  _321
REMARK  135  A    between atoms: _321  and  _322
REMARK  136  A    between atoms: _321  and  _324
REMARK  137  A    between atoms: _324  and  _325
REMARK  138  A    between atoms: _328  and  _330
REMARK  139  A    between atoms: _330  and  _331
REMARK  140  A    between atoms: _330  and  _333
REMARK  141  A    between atoms: _333  and  _334
REMARK  142  A    between atoms: _334  and  _335
REMARK  143  A    between atoms: _335  and  _336
REMARK  144  A    between atoms: _345  and  _347
REMARK  145  A    between atoms: _347  and  _348
REMARK  146  A    between atoms: _351  and  _352
REMARK  147  A    between atoms: _357  and  _359
REMARK  148  A    between atoms: _359  and  _360
REMARK  149  A    between atoms: _359  and  _362
REMARK  150  A    between atoms: _362  and  _363
REMARK  151  A    between atoms: _363  and  _364
REMARK  152  A    between atoms: _366  and  _368
REMARK  153  A    between atoms: _368  and  _369
REMARK  154  A    between atoms: _368  and  _371
REMARK  155  A    between atoms: _371  and  _372
REMARK  156  A    between atoms: _372  and  _373
REMARK  157  A    between atoms: _375  and  _377
REMARK  158  A    between atoms: _377  and  _378
REMARK  159  A    between atoms: _377  and  _380
REMARK  160  A    between atoms: _380  and  _381
REMARK  161  A    between atoms: _386  and  _388
REMARK  162  A    between atoms: _388  and  _389
REMARK  163  A    between atoms: _388  and  _391
REMARK  164  A    between atoms: _391  and  _392
REMARK  165  A    between atoms: _395  and  _397
REMARK  166  A    between atoms: _397  and  _398
REMARK  167  A    between atoms: _397  and  _400
REMARK  168  A    between atoms: _400  and  _401
REMARK  169  A    between atoms: _403  and  _405
REMARK  170  A    between atoms: _405  and  _406
REMARK  171  A    between atoms: _405  and  _408
REMARK  172  A    between atoms: _408  and  _409
REMARK  173  A    between atoms: _409  and  _410
REMARK  174  A    between atoms: _410  and  _411
REMARK  175  A    between atoms: _411  and  _412
REMARK  176  A    between atoms: _416  and  _418
REMARK  177  A    between atoms: _418  and  _419
REMARK  178  A    between atoms: _418  and  _421
REMARK  179  A    between atoms: _421  and  _422
REMARK  180  A    between atoms: _425  and  _427
REMARK  181  A    between atoms: _427  and  _428
REMARK  182  A    between atoms: _427  and  _430
REMARK  183  A    between atoms: _430  and  _431
REMARK  184  A    between atoms: _431  and  _432
REMARK  185  A    between atoms: _435  and  _437
REMARK  186  A    between atoms: _437  and  _438
REMARK  187  A    between atoms: _441  and  _443
REMARK  188  A    between atoms: _443  and  _444
REMARK  189  A    between atoms: _443  and  _446
REMARK  190  A    between atoms: _449  and  _451
REMARK  191  A    between atoms: _451  and  _452
REMARK  192  A    between atoms: _451  and  _454
REMARK  193  A    between atoms: _454  and  _455
REMARK  194  A    between atoms: _457  and  _459
REMARK  195  A    between atoms: _459  and  _460
REMARK  196  A    between atoms: _462  and  _464
REMARK  197  A    between atoms: _464  and  _465
REMARK  198  A    between atoms: _464  and  _467
REMARK  199  A    between atoms: _467  and  _468
REMARK  200  A    between atoms: _473  and  _475
REMARK  201  A    between atoms: _475  and  _476
REMARK  202  A    between atoms: _475  and  _478
REMARK  203  A    between atoms: _478  and  _479
REMARK  204  A    between atoms: _484  and  _485
REMARK  205  A    between atoms: _487  and  _489
REMARK  206  A    between atoms: _489  and  _490
REMARK  207  A    between atoms: _489  and  _492
REMARK  208  A    between atoms: _494  and  _496
REMARK  209  A    between atoms: _496  and  _497
REMARK  210  A    between atoms: _496  and  _499
REMARK  211  A    between atoms: _499  and  _500
REMARK  212  A    between atoms: _503  and  _505
REMARK  213  A    between atoms: _505  and  _506
REMARK  214  A    between atoms: _505  and  _508
REMARK  215  A    between atoms: _508  and  _509
REMARK  216  A    between atoms: _512  and  _514
REMARK  217  A    between atoms: _514  and  _515
REMARK  218  A    between atoms: _514  and  _517
REMARK  219  A    between atoms: _517  and  _518
REMARK  220  A    between atoms: _518  and  _519
REMARK  221  A    between atoms: _519  and  _520
REMARK  222  A    between atoms: _520  and  _521
REMARK  223  A    between atoms: _525  and  _527
REMARK  224  A    between atoms: _527  and  _528
REMARK  225  A    between atoms: _527  and  _530
REMARK  226  A    between atoms: _530  and  _531
REMARK  227  A    between atoms: _531  and  _532
REMARK  228  A    between atoms: _532  and  _533
REMARK  229  A    between atoms: _533  and  _534
REMARK  230  A    between atoms: _538  and  _540
REMARK  231  A    between atoms: _540  and  _541
REMARK  232  A    between atoms: _540  and  _543
REMARK  233  A    between atoms: _543  and  _544
REMARK  234  A    between atoms: _544  and  _545
REMARK  235  A    between atoms: _545  and  _546
REMARK  236  A    between atoms: _555  and  _557
REMARK  237  A    between atoms: _557  and  _558
REMARK  238  A    between atoms: _557  and  _560
REMARK  239  A    between atoms: _560  and  _561
REMARK  240  A    between atoms: _564  and  _566
REMARK  241  A    between atoms: _566  and  _567
REMARK  242  A    between atoms: _570  and  _572
REMARK  243  A    between atoms: _572  and  _573
REMARK  244  A    between atoms: _572  and  _575
REMARK  245  A    between atoms: _575  and  _576
REMARK  246  A    between atoms: _576  and  _577
REMARK                            x       y       z     vdW  Elec       q    Type
REMARK                         _______ _______ _______ _____ _____    ______ ____
ROOT
ATOM      1  NE  ARG A   1      23.591  -1.890  -4.289  0.00  0.00    -0.265 N 
ATOM      2  HE  ARG A   1      23.639  -0.969  -4.770  0.00  0.00    +0.259 HD
ATOM      3  CZ  ARG A   1      24.205  -2.904  -4.879  0.00  0.00    +0.342 C 
ATOM      4  NH2 ARG A   1      24.222  -4.125  -4.370  0.00  0.00    -0.292 N 
ATOM      5 HH21 ARG A   1      23.739  -4.320  -3.470  0.00  0.00    +0.255 HD
ATOM      6 HH22 ARG A   1      24.718  -4.890  -4.870  0.00  0.00    +0.255 HD
ATOM      7  NH1 ARG A   1      24.835  -2.690  -6.007  0.00  0.00    -0.292 N 
ATOM      8 HH11 ARG A   1      24.847  -1.737  -6.423  0.00  0.00    +0.255 HD
ATOM      9 HH12 ARG A   1      25.324  -3.473  -6.486  0.00  0.00    +0.255 HD
ENDROOT
BRANCH   1  10
ATOM     10  CD  ARG A   1      22.849  -1.937  -3.024  0.00  0.00    +0.174 C 
BRANCH  10  11
ATOM     11  CG  ARG A   1      21.370  -1.673  -3.217  0.00  0.00    +0.045 C 
BRANCH  11  12
ATOM     12  CB  ARG A   1      20.599  -1.497  -1.930  0.00  0.00    +0.029 C 
BRANCH  12  13
ATOM     13  CA  ARG A   1      19.139  -1.086  -2.136  0.00  0.00    +0.133 C 
BRANCH  13  14
ATOM     14  N   ARG A   1      18.506  -0.726  -0.868  0.00  0.00    -0.239 NA
ATOM     15  H   ARG A   1      17.985  -1.463  -0.352  0.00  0.00    +0.142 HD
ENDBRANCH  13  14
BRANCH  13  16
ATOM     16  C   ARG A   1      18.371  -2.245  -2.747  0.00  0.00    +0.224 C 
ATOM     17  O   ARG A   1      18.017  -3.183  -2.053  0.00  0.00    -0.287 OA
ENDBRANCH  13  16
ENDBRANCH  12  13
ENDBRANCH  11  12
ENDBRANCH  10  11
ENDBRANCH   1  10
TORSDOF 6
REMARK  Name = ../refined-set-2016/3cct/3cct_pocket.pdb
REMARK  246 active torsions:
REMARK  status: ('A' for Active; 'I' for Inactive)
REMARK    1  A    between atoms: _1  and  _3
REMARK    2  A    between atoms: _3  and  _4
REMARK    3  A    between atoms: _3  and  _6
REMARK    4  A    between atoms: _6  and  _7
REMARK    5  A    between atoms: _10  and  _12
REMARK    6  A    between atoms: _12  and  _13
REMARK    7  A    between atoms: _12  and  _15
REMARK    8  A    between atoms: _15  and  _16
REMARK    9  A    between atoms: _16  and  _17
REMARK   10  A    between atoms: _20  and  _22
REMARK   11  A    between atoms: _22  and  _23
REMARK   12  A    between atoms: _25  and  _27
REMARK   13  A    between atoms: _27  and  _28
REMARK   14  A    between atoms: _27  and  _30
REMARK   15  A    between atoms: _32  and  _34
REMARK   16  A    between atoms: _34  and  _35
REMARK   17  A    between atoms: _34  and  _37
REMARK   18  A    between atoms: _37  and  _38
REMARK   19  A    between atoms: _41  and  _43
REMARK   20  A    between atoms: _43  and  _44
REMARK   21  A    between atoms: _43  and  _46
REMARK   22  A    between atoms: _49  and  _51
REMARK   23  A    between atoms: _51  and  _52
REMARK   24  A    between atoms: _55  and  _57
REMARK   25  A    between atoms: _57  and  _58
REMARK   26  A    between atoms: _57  and  _60
REMARK   27  A    between atoms: _60  and  _61
REMARK   28  A    between atoms: _63  and  _65
REMARK   29  A    between atoms: _65  and  _66
REMARK   30  A    between atoms: _65  and  _68
REMARK   31  A    between atoms: _68  and  _69
REMARK   32  A    between atoms: _72  and  _74
REMARK   33  A    between atoms: _74  and  _75
REMARK   34  A    between atoms: _74  and  _77
REMARK   35  A    between atoms: _77  and  _78
REMARK   36  A    between atoms: _83  and  _85
REMARK   37  A    between atoms: _85  and  _86
REMARK   38  A    between atoms: _85  and  _88
REMARK   39  A    between atoms: _88  and  _89
REMARK   40  A    between atoms: _89  and  _90
REMARK   41  A    between atoms: _90  and  _91
REMARK   42  A    between atoms: _100  and  _102
REMARK   43  A    between atoms: _102  and  _103
REMARK   44  A    between atoms: _105  and  _107
REMARK   45  A    between atoms: _107  and  _108
REMARK   46  A    between atoms: _107  and  _110
REMARK   47  A    between atoms: _113  and  _115
REMARK   48  A    between atoms: _115  and  _116
REMARK   49  A    between atoms: _115  and  _118
REMARK   50  A    between atoms: _118  and  _119
REMARK   51  A    between atoms: _122  and  _124
REMARK   52  A    between atoms: _124  and  _125
REMARK   53  A    between atoms: _124  and  _127
REMARK   54  A    between atoms: _127  and  _128
REMARK   55  A    between atoms: _128  and  _129
REMARK   56  A    between atoms: _129  and  _130
REMARK   57  A    between atoms: _130  and  _131
REMARK   58  A    between atoms: _135  and  _137
REMARK   59  A    between atoms: _137  and  _138
REMARK   60  A    between atoms: _137  and  _140
REMARK   61  A    between atoms: _140  and  _141
REMARK   62  A    between atoms: _141  and  _142
REMARK   63  A    between atoms: _142  and  _143
REMARK   64  A    between atoms: _143  and  _144
REMARK   65  A    between atoms: _148  and  _150
REMARK   66  A    between atoms: _150  and  _151
REMARK   67  A    between atoms: _150  and  _153
REMARK   68  A    between atoms: _153  and  _154
REMARK   69  A    between atoms: _159  and  _161
REMARK   70  A    between atoms: _161  and  _162
REMARK   71  A    between atoms: _161  and  _164
REMARK   72  A    between atoms: _164  and  _165
REMARK   73  A    between atoms: _170  and  _172
REMARK   74  A    between atoms: _172  and  _173
REMARK   75  A    between atoms: _176  and  _178
REMARK   76  A    between atoms: _178  and  _179
REMARK   77  A    between atoms: _178  and  _181
REMARK   78  A    between atoms: _181  and  _182
REMARK   79  A    between atoms: _187  and  _189
REMARK   80  A    between atoms: _189  and  _190
REMARK   81  A    between atoms: _193  and  _195
REMARK   82  A    between atoms: _195  and  _196
REMARK   83  A    between atoms: _199  and  _201
REMARK   84  A    between atoms: _201  and  _202
REMARK   85  A    between atoms: _201  and  _204
REMARK   86  A    between atoms: _204  and  _205
REMARK   87  A    between atoms: _210  and  _212
REMARK   88  A    between atoms: _212  and  _213
REMARK   89  A    between atoms: _212  and  _215
REMARK   90  A    between atoms: _215  and  _216
REMARK   91  A    between atoms: _219  and  _221
REMARK   92  A    between atoms: _221  and  _222
REMARK   93  A    between atoms: _224  and  _226
REMARK   94  A    between atoms: _226  and  _227
REMARK   95  A    between atoms: _226  and  _229
REMARK   96  A    between atoms: _229  and  _230
REMARK   97  A    between atoms: _230  and  _231
REMARK   98  A    between atoms: _234  and  _236
REMARK   99  A    between atoms: _236  and  _237
REMARK  100  A    between atoms: _236  and  _239
REMARK  101  A    between atoms: _239  and  _240
REMARK  102  A    between atoms: _242  and  _244
REMARK  103  A    between atoms: _244  and  _245
REMARK  104  A    between atoms: _244  and  _247
REMARK  105  A    between atoms: _247  and  _248
REMARK  106  A    between atoms: _251  and  _253
REMARK  107  A    between atoms: _253  and  _254
REMARK  108  A    between atoms: _253  and  _256
REMARK  109  A    between atoms: _256  and  _257
REMARK  110  A    between atoms: _257  and  _258
REMARK  111  A    between atoms: _260  and  _262
REMARK  112  A    between atoms: _262  and  _263
REMARK  113  A    between atoms: _266  and  _268
REMARK  114  A    between atoms: _268  and  _269
REMARK  115  A    between atoms: _272  and  _274
REMARK  116  A    between atoms: _274  and  _275
REMARK  117  A    between atoms: _274  and  _277
REMARK  118  A    between atoms: _277  and  _278
REMARK  119  A    between atoms: _281  and  _283
REMARK  120  A    between atoms: _283  and  _284
REMARK  121  A    between atoms: _287  and  _289
REMARK  122  A    between atoms: _289  and  _290
REMARK  123  A    between atoms: _293  and  _295
REMARK  124  A    between atoms: _295  and  _296
REMARK  125  A    between atoms: _298  and  _300
REMARK  126  A    between atoms: _300  and  _301
REMARK  127  A    between atoms: _300  and  _303
REMARK  128  A    between atoms: _303  and  _304
REMARK  129  A    between atoms: _309  and  _311
REMARK  130  A    between atoms: _311  and  _312
REMARK  131  A    between atoms: _311  and  _314
REMARK  132  A    between atoms: _314  and  _315
REMARK  133  A    between atoms: _315  and  _316
REMARK  134  A    between atoms: _319  and  _321
REMARK  135  A    between atoms: _321  and  _322
REMARK  136  A    between atoms: _321  and  _324
REMARK  137  A    between atoms: _324  and  _325
REMARK  138  A    between atoms: _328  and  _330
REMARK  139  A    between atoms: _330  and  _331
REMARK  140  A    between atoms: _330  and  _333
REMARK  141  A    between atoms: _333  and  _334
REMARK  142  A    between atoms: _334  and  _335
REMARK  143  A    between atoms: _335  and  _336
REMARK  144  A    between atoms: _345  and  _347
REMARK  145  A    between atoms: _347  and  _348
REMARK  146  A    between atoms: _351  and  _352
REMARK  147  A    between atoms: _357  and  _359
REMARK  148  A    between atoms: _359  and  _360
REMARK  149  A    between atoms: _359  and  _362
REMARK  150  A    between atoms: _362  and  _363
REMARK  151  A    between atoms: _363  and  _364
REMARK  152  A    between atoms: _366  and  _368
REMARK  153  A    between atoms: _368  and  _369
REMARK  154  A    between atoms: _368  and  _371
REMARK  155  A    between atoms: _371  and  _372
REMARK  156  A    between atoms: _372  and  _373
REMARK  157  A    between atoms: _375  and  _377
REMARK  158  A    between atoms: _377  and  _378
REMARK  159  A    between atoms: _377  and  _380
REMARK  160  A    between atoms: _380  and  _381
REMARK  161  A    between atoms: _386  and  _388
REMARK  162  A    between atoms: _388  and  _389
REMARK  163  A    between atoms: _388  and  _391
REMARK  164  A    between atoms: _391  and  _392
REMARK  165  A    between atoms: _395  and  _397
REMARK  166  A    between atoms: _397  and  _398
REMARK  167  A    between atoms: _397  and  _400
REMARK  168  A    between atoms: _400  and  _401
REMARK  169  A    between atoms: _403  and  _405
REMARK  170  A    between atoms: _405  and  _406
REMARK  171  A    between atoms: _405  and  _408
REMARK  172  A    between atoms: _408  and  _409
REMARK  173  A    between atoms: _409  and  _410
REMARK  174  A    between atoms: _410  and  _411
REMARK  175  A    between atoms: _411  and  _412
REMARK  176  A    between atoms: _416  and  _418
REMARK  177  A    between atoms: _418  and  _419
REMARK  178  A    between atoms: _418  and  _421
REMARK  179  A    between atoms: _421  and  _422
REMARK  180  A    between atoms: _425  and  _427
REMARK  181  A    between atoms: _427  and  _428
REMARK  182  A    between atoms: _427  and  _430
REMARK  183  A    between atoms: _430  and  _431
REMARK  184  A    between atoms: _431  and  _432
REMARK  185  A    between atoms: _435  and  _437
REMARK  186  A    between atoms: _437  and  _438
REMARK  187  A    between atoms: _441  and  _443
REMARK  188  A    between atoms: _443  and  _444
REMARK  189  A    between atoms: _443  and  _446
REMARK  190  A    between atoms: _449  and  _451
REMARK  191  A    between atoms: _451  and  _452
REMARK  192  A    between atoms: _451  and  _454
REMARK  193  A    between atoms: _454  and  _455
REMARK  194  A    between atoms: _457  and  _459
REMARK  195  A    between atoms: _459  and  _460
REMARK  196  A    between atoms: _462  and  _464
REMARK  197  A    between atoms: _464  and  _465
REMARK  198  A    between atoms: _464  and  _467
REMARK  199  A    between atoms: _467  and  _468
REMARK  200  A    between atoms: _473  and  _475
REMARK  201  A    between atoms: _475  and  _476
REMARK  202  A    between atoms: _475  and  _478
REMARK  203  A    between atoms: _478  and  _479
REMARK  204  A    between atoms: _484  and  _485
REMARK  205  A    between atoms: _487  and  _489
REMARK  206  A    between atoms: _489  and  _490
REMARK  207  A    between atoms: _489  and  _492
REMARK  208  A    between atoms: _494  and  _496
REMARK  209  A    between atoms: _496  and  _497
REMARK  210  A    between atoms: _496  and  _499
REMARK  211  A    between atoms: _499  and  _500
REMARK  212  A    between atoms: _503  and  _505
REMARK  213  A    between atoms: _505  and  _506
REMARK  214  A    between atoms: _505  and  _508
REMARK  215  A    between atoms: _508  and  _509
REMARK  216  A    between atoms: _512  and  _514
REMARK  217  A    between atoms: _514  and  _515
REMARK  218  A    between atoms: _514  and  _517
REMARK  219  A    between atoms: _517  and  _518
REMARK  220  A    between atoms: _518  and  _519
REMARK  221  A    between atoms: _519  and  _520
REMARK  222  A    between atoms: _520  and  _521
REMARK  223  A    between atoms: _525  and  _527
REMARK  224  A    between atoms: _527  and  _528
REMARK  225  A    between atoms: _527  and  _530
REMARK  226  A    between atoms: _530  and  _531
REMARK  227  A    between atoms: _531  and  _532
REMARK  228  A    between atoms: _532  and  _533
REMARK  229  A    between atoms: _533  and  _534
REMARK  230  A    between atoms: _538  and  _540
REMARK  231  A    between atoms: _540  and  _541
REMARK  232  A    between atoms: _540  and  _543
REMARK  233  A    between atoms: _543  and  _544
REMARK  234  A    between atoms: _544  and  _545
REMARK  235  A    between atoms: _545  and  _546
REMARK  236  A    between atoms: _555  and  _557
REMARK  237  A    between atoms: _557  and  _558
REMARK  238  A    between atoms: _557  and  _560
REMARK  239  A    between atoms: _560  and  _561
REMARK  240  A    between atoms: _564  and  _566
REMARK  241  A    between atoms: _566  and  _567
REMARK  242  A    between atoms: _570  and  _572
REMARK  243  A    between atoms: _572  and  _573
REMARK  244  A    between atoms: _572  and  _575
REMARK  245  A    between atoms: _575  and  _576
REMARK  246  A    between atoms: _576  and  _577
REMARK                            x       y       z     vdW  Elec       q    Type
REMARK                         _______ _______ _______ _____ _____    ______ ____
ROOT
ATOM      1  CA  ASP A   1      23.780 -13.926  -7.047  0.00  0.00    +0.144 C 
ENDROOT
BRANCH   1   2
ATOM      2  N   ASP A   1      22.371 -14.049  -7.378  0.00  0.00    -0.239 NA
ATOM      3  H   ASP A   1      21.778 -13.195  -7.385  0.00  0.00    +0.142 HD
ENDBRANCH   1   2
BRANCH   1   4
ATOM      4  C   ASP A   1      23.870 -14.175  -5.553  0.00  0.00    +0.225 C 
ATOM      5  O   ASP A   1      23.526 -13.321  -4.763  0.00  0.00    -0.287 OA
ENDBRANCH   1   4
BRANCH   1   6
ATOM      6  CB  ASP A   1      24.270 -12.526  -7.407  0.00  0.00    +0.139 C 
BRANCH   6   7
ATOM      7  CG  ASP A   1      25.776 -12.390  -7.347  0.00  0.00    +0.367 C 
ATOM      8  OD2 ASP A   1      26.432 -13.060  -6.519  0.00  0.00    -0.246 OA
ATOM      9  OD1 ASP A   1      26.383 -11.603  -8.092  0.00  0.00    -0.246 OA
ENDBRANCH   6   7
ENDBRANCH   1   6
TORSDOF 4
REMARK  Name = ../refined-set-2016/3cct/3cct_pocket.pdb
REMARK  246 active torsions:
REMARK  status: ('A' for Active; 'I' for Inactive)
REMARK    1  A    between atoms: _1  and  _3
REMARK    2  A    between atoms: _3  and  _4
REMARK    3  A    between atoms: _3  and  _6
REMARK    4  A    between atoms: _6  and  _7
REMARK    5  A    between atoms: _10  and  _12
REMARK    6  A    between atoms: _12  and  _13
REMARK    7  A    between atoms: _12  and  _15
REMARK    8  A    between atoms: _15  and  _16
REMARK    9  A    between atoms: _16  and  _17
REMARK   10  A    between atoms: _20  and  _22
REMARK   11  A    between atoms: _22  and  _23
REMARK   12  A    between atoms: _25  and  _27
REMARK   13  A    between atoms: _27  and  _28
REMARK   14  A    between atoms: _27  and  _30
REMARK   15  A    between atoms: _32  and  _34
REMARK   16  A    between atoms: _34  and  _35
REMARK   17  A    between atoms: _34  and  _37
REMARK   18  A    between atoms: _37  and  _38
REMARK   19  A    between atoms: _41  and  _43
REMARK   20  A    between atoms: _43  and  _44
REMARK   21  A    between atoms: _43  and  _46
REMARK   22  A    between atoms: _49  and  _51
REMARK   23  A    between atoms: _51  and  _52
REMARK   24  A    between atoms: _55  and  _57
REMARK   25  A    between atoms: _57  and  _58
REMARK   26  A    between atoms: _57  and  _60
REMARK   27  A    between atoms: _60  and  _61
REMARK   28  A    between atoms: _63  and  _65
REMARK   29  A    between atoms: _65  and  _66
REMARK   30  A    between atoms: _65  and  _68
REMARK   31  A    between atoms: _68  and  _69
REMARK   32  A    between atoms: _72  and  _74
REMARK   33  A    between atoms: _74  and  _75
REMARK   34  A    between atoms: _74  and  _77
REMARK   35  A    between atoms: _77  and  _78
REMARK   36  A    between atoms: _83  and  _85
REMARK   37  A    between atoms: _85  and  _86
REMARK   38  A    between atoms: _85  and  _88
REMARK   39  A    between atoms: _88  and  _89
REMARK   40  A    between atoms: _89  and  _90
REMARK   41  A    between atoms: _90  and  _91
REMARK   42  A    between atoms: _100  and  _102
REMARK   43  A    between atoms: _102  and  _103
REMARK   44  A    between atoms: _105  and  _107
REMARK   45  A    between atoms: _107  and  _108
REMARK   46  A    between atoms: _107  and  _110
REMARK   47  A    between atoms: _113  and  _115
REMARK   48  A    between atoms: _115  and  _116
REMARK   49  A    between atoms: _115  and  _118
REMARK   50  A    between atoms: _118  and  _119
REMARK   51  A    between atoms: _122  and  _124
REMARK   52  A    between atoms: _124  and  _125
REMARK   53  A    between atoms: _124  and  _127
REMARK   54  A    between atoms: _127  and  _128
REMARK   55  A    between atoms: _128  and  _129
REMARK   56  A    between atoms: _129  and  _130
REMARK   57  A    between atoms: _130  and  _131
REMARK   58  A    between atoms: _135  and  _137
REMARK   59  A    between atoms: _137  and  _138
REMARK   60  A    between atoms: _137  and  _140
REMARK   61  A    between atoms: _140  and  _141
REMARK   62  A    between atoms: _141  and  _142
REMARK   63  A    between atoms: _142  and  _143
REMARK   64  A    between atoms: _143  and  _144
REMARK   65  A    between atoms: _148  and  _150
REMARK   66  A    between atoms: _150  and  _151
REMARK   67  A    between atoms: _150  and  _153
REMARK   68  A    between atoms: _153  and  _154
REMARK   69  A    between atoms: _159  and  _161
REMARK   70  A    between atoms: _161  and  _162
REMARK   71  A    between atoms: _161  and  _164
REMARK   72  A    between atoms: _164  and  _165
REMARK   73  A    between atoms: _170  and  _172
REMARK   74  A    between atoms: _172  and  _173
REMARK   75  A    between atoms: _176  and  _178
REMARK   76  A    between atoms: _178  and  _179
REMARK   77  A    between atoms: _178  and  _181
REMARK   78  A    between atoms: _181  and  _182
REMARK   79  A    between atoms: _187  and  _189
REMARK   80  A    between atoms: _189  and  _190
REMARK   81  A    between atoms: _193  and  _195
REMARK   82  A    between atoms: _195  and  _196
REMARK   83  A    between atoms: _199  and  _201
REMARK   84  A    between atoms: _201  and  _202
REMARK   85  A    between atoms: _201  and  _204
REMARK   86  A    between atoms: _204  and  _205
REMARK   87  A    between atoms: _210  and  _212
REMARK   88  A    between atoms: _212  and  _213
REMARK   89  A    between atoms: _212  and  _215
REMARK   90  A    between atoms: _215  and  _216
REMARK   91  A    between atoms: _219  and  _221
REMARK   92  A    between atoms: _221  and  _222
REMARK   93  A    between atoms: _224  and  _226
REMARK   94  A    between atoms: _226  and  _227
REMARK   95  A    between atoms: _226  and  _229
REMARK   96  A    between atoms: _229  and  _230
REMARK   97  A    between atoms: _230  and  _231
REMARK   98  A    between atoms: _234  and  _236
REMARK   99  A    between atoms: _236  and  _237
REMARK  100  A    between atoms: _236  and  _239
REMARK  101  A    between atoms: _239  and  _240
REMARK  102  A    between atoms: _242  and  _244
REMARK  103  A    between atoms: _244  and  _245
REMARK  104  A    between atoms: _244  and  _247
REMARK  105  A    between atoms: _247  and  _248
REMARK  106  A    between atoms: _251  and  _253
REMARK  107  A    between atoms: _253  and  _254
REMARK  108  A    between atoms: _253  and  _256
REMARK  109  A    between atoms: _256  and  _257
REMARK  110  A    between atoms: _257  and  _258
REMARK  111  A    between atoms: _260  and  _262
REMARK  112  A    between atoms: _262  and  _263
REMARK  113  A    between atoms: _266  and  _268
REMARK  114  A    between atoms: _268  and  _269
REMARK  115  A    between atoms: _272  and  _274
REMARK  116  A    between atoms: _274  and  _275
REMARK  117  A    between atoms: _274  and  _277
REMARK  118  A    between atoms: _277  and  _278
REMARK  119  A    between atoms: _281  and  _283
REMARK  120  A    between atoms: _283  and  _284
REMARK  121  A    between atoms: _287  and  _289
REMARK  122  A    between atoms: _289  and  _290
REMARK  123  A    between atoms: _293  and  _295
REMARK  124  A    between atoms: _295  and  _296
REMARK  125  A    between atoms: _298  and  _300
REMARK  126  A    between atoms: _300  and  _301
REMARK  127  A    between atoms: _300  and  _303
REMARK  128  A    between atoms: _303  and  _304
REMARK  129  A    between atoms: _309  and  _311
REMARK  130  A    between atoms: _311  and  _312
REMARK  131  A    between atoms: _311  and  _314
REMARK  132  A    between atoms: _314  and  _315
REMARK  133  A    between atoms: _315  and  _316
REMARK  134  A    between atoms: _319  and  _321
REMARK  135  A    between atoms: _321  and  _322
REMARK  136  A    between atoms: _321  and  _324
REMARK  137  A    between atoms: _324  and  _325
REMARK  138  A    between atoms: _328  and  _330
REMARK  139  A    between atoms: _330  and  _331
REMARK  140  A    between atoms: _330  and  _333
REMARK  141  A    between atoms: _333  and  _334
REMARK  142  A    between atoms: _334  and  _335
REMARK  143  A    between atoms: _335  and  _336
REMARK  144  A    between atoms: _345  and  _347
REMARK  145  A    between atoms: _347  and  _348
REMARK  146  A    between atoms: _351  and  _352
REMARK  147  A    between atoms: _357  and  _359
REMARK  148  A    between atoms: _359  and  _360
REMARK  149  A    between atoms: _359  and  _362
REMARK  150  A    between atoms: _362  and  _363
REMARK  151  A    between atoms: _363  and  _364
REMARK  152  A    between atoms: _366  and  _368
REMARK  153  A    between atoms: _368  and  _369
REMARK  154  A    between atoms: _368  and  _371
REMARK  155  A    between atoms: _371  and  _372
REMARK  156  A    between atoms: _372  and  _373
REMARK  157  A    between atoms: _375  and  _377
REMARK  158  A    between atoms: _377  and  _378
REMARK  159  A    between atoms: _377  and  _380
REMARK  160  A    between atoms: _380  and  _381
REMARK  161  A    between atoms: _386  and  _388
REMARK  162  A    between atoms: _388  and  _389
REMARK  163  A    between atoms: _388  and  _391
REMARK  164  A    between atoms: _391  and  _392
REMARK  165  A    between atoms: _395  and  _397
REMARK  166  A    between atoms: _397  and  _398
REMARK  167  A    between atoms: _397  and  _400
REMARK  168  A    between atoms: _400  and  _401
REMARK  169  A    between atoms: _403  and  _405
REMARK  170  A    between atoms: _405  and  _406
REMARK  171  A    between atoms: _405  and  _408
REMARK  172  A    between atoms: _408  and  _409
REMARK  173  A    between atoms: _409  and  _410
REMARK  174  A    between atoms: _410  and  _411
REMARK  175  A    between atoms: _411  and  _412
REMARK  176  A    between atoms: _416  and  _418
REMARK  177  A    between atoms: _418  and  _419
REMARK  178  A    between atoms: _418  and  _421
REMARK  179  A    between atoms: _421  and  _422
REMARK  180  A    between atoms: _425  and  _427
REMARK  181  A    between atoms: _427  and  _428
REMARK  182  A    between atoms: _427  and  _430
REMARK  183  A    between atoms: _430  and  _431
REMARK  184  A    between atoms: _431  and  _432
REMARK  185  A    between atoms: _435  and  _437
REMARK  186  A    between atoms: _437  and  _438
REMARK  187  A    between atoms: _441  and  _443
REMARK  188  A    between atoms: _443  and  _444
REMARK  189  A    between atoms: _443  and  _446
REMARK  190  A    between atoms: _449  and  _451
REMARK  191  A    between atoms: _451  and  _452
REMARK  192  A    between atoms: _451  and  _454
REMARK  193  A    between atoms: _454  and  _455
REMARK  194  A    between atoms: _457  and  _459
REMARK  195  A    between atoms: _459  and  _460
REMARK  196  A    between atoms: _462  and  _464
REMARK  197  A    between atoms: _464  and  _465
REMARK  198  A    between atoms: _464  and  _467
REMARK  199  A    between atoms: _467  and  _468
REMARK  200  A    between atoms: _473  and  _475
REMARK  201  A    between atoms: _475  and  _476
REMARK  202  A    between atoms: _475  and  _478
REMARK  203  A    between atoms: _478  and  _479
REMARK  204  A    between atoms: _484  and  _485
REMARK  205  A    between atoms: _487  and  _489
REMARK  206  A    between atoms: _489  and  _490
REMARK  207  A    between atoms: _489  and  _492
REMARK  208  A    between atoms: _494  and  _496
REMARK  209  A    between atoms: _496  and  _497
REMARK  210  A    between atoms: _496  and  _499
REMARK  211  A    between atoms: _499  and  _500
REMARK  212  A    between atoms: _503  and  _505
REMARK  213  A    between atoms: _505  and  _506
REMARK  214  A    between atoms: _505  and  _508
REMARK  215  A    between atoms: _508  and  _509
REMARK  216  A    between atoms: _512  and  _514
REMARK  217  A    between atoms: _514  and  _515
REMARK  218  A    between atoms: _514  and  _517
REMARK  219  A    between atoms: _517  and  _518
REMARK  220  A    between atoms: _518  and  _519
REMARK  221  A    between atoms: _519  and  _520
REMARK  222  A    between atoms: _520  and  _521
REMARK  223  A    between atoms: _525  and  _527
REMARK  224  A    between atoms: _527  and  _528
REMARK  225  A    between atoms: _527  and  _530
REMARK  226  A    between atoms: _530  and  _531
REMARK  227  A    between atoms: _531  and  _532
REMARK  228  A    between atoms: _532  and  _533
REMARK  229  A    between atoms: _533  and  _534
REMARK  230  A    between atoms: _538  and  _540
REMARK  231  A    between atoms: _540  and  _541
REMARK  232  A    between atoms: _540  and  _543
REMARK  233  A    between atoms: _543  and  _544
REMARK  234  A    between atoms: _544  and  _545
REMARK  235  A    between atoms: _545  and  _546
REMARK  236  A    between atoms: _555  and  _557
REMARK  237  A    between atoms: _557  and  _558
REMARK  238  A    between atoms: _557  and  _560
REMARK  239  A    between atoms: _560  and  _561
REMARK  240  A    between atoms: _564  and  _566
REMARK  241  A    between atoms: _566  and  _567
REMARK  242  A    between atoms: _570  and  _572
REMARK  243  A    between atoms: _572  and  _573
REMARK  244  A    between atoms: _572  and  _575
REMARK  245  A    between atoms: _575  and  _576
REMARK  246  A    between atoms: _576  and  _577
REMARK                            x       y       z     vdW  Elec       q    Type
REMARK                         _______ _______ _______ _____ _____    ______ ____
ROOT
ATOM      1  CA  GLN A   2      24.514 -10.641  -2.465  0.00  0.00    +0.137 C 
ENDROOT
BRANCH   1   4
ATOM      2  C   ALA A   1      26.444 -12.129  -2.261  0.00  0.00    +0.238 C 
ATOM      3  O   ALA A   1      26.886 -11.491  -1.302  0.00  0.00    -0.274 OA
ATOM      4  N   GLN A   2      25.339 -11.767  -2.907  0.00  0.00    -0.298 N 
ATOM      5  H   GLN A   2      25.052 -12.300  -3.752  0.00  0.00    +0.150 HD
BRANCH   2   6
ATOM      6  CA  ALA A   1      27.155 -13.403  -2.750  0.00  0.00    +0.145 C 
ATOM      7  CB  ALA A   1      28.358 -13.058  -3.610  0.00  0.00    +0.028 C 
BRANCH   6   8
ATOM      8  N   ALA A   1      26.251 -14.301  -3.479  0.00  0.00    -0.238 NA
ATOM      9  H   ALA A   1      26.399 -14.443  -4.499  0.00  0.00    +0.142 HD
ENDBRANCH   6   8
ENDBRANCH   2   6
ENDBRANCH   1   4
BRANCH   1  10
ATOM     10  C   GLN A   2      23.641 -10.942  -1.230  0.00  0.00    +0.227 C 
ATOM     11  O   GLN A   2      22.915 -10.087  -0.758  0.00  0.00    -0.286 OA
ENDBRANCH   1  10
BRANCH   1  12
ATOM     12  CB  GLN A   2      23.653 -10.106  -3.617  0.00  0.00    +0.037 C 
BRANCH  12  13
ATOM     13  CG  GLN A   2      24.481  -9.417  -4.723  0.00  0.00    +0.087 C 
BRANCH  13  14
ATOM     14  CD  GLN A   2      23.630  -8.857  -5.845  0.00  0.00    +0.219 C 
ATOM     15  OE1 GLN A   2      22.697  -9.517  -6.299  0.00  0.00    -0.275 OA
ATOM     16  NE2 GLN A   2      23.954  -7.636  -6.306  0.00  0.00    -0.329 N 
ATOM     17 HE21 GLN A   2      24.753  -7.118  -5.888  0.00  0.00    +0.145 HD
ATOM     18 HE22 GLN A   2      23.406  -7.210  -7.080  0.00  0.00    +0.145 HD
ENDBRANCH  13  14
ENDBRANCH  12  13
ENDBRANCH   1  12
TORSDOF 7
REMARK  Name = ../refined-set-2016/3cct/3cct_pocket.pdb
REMARK  246 active torsions:
REMARK  status: ('A' for Active; 'I' for Inactive)
REMARK    1  A    between atoms: _1  and  _3
REMARK    2  A    between atoms: _3  and  _4
REMARK    3  A    between atoms: _3  and  _6
REMARK    4  A    between atoms: _6  and  _7
REMARK    5  A    between atoms: _10  and  _12
REMARK    6  A    between atoms: _12  and  _13
REMARK    7  A    between atoms: _12  and  _15
REMARK    8  A    between atoms: _15  and  _16
REMARK    9  A    between atoms: _16  and  _17
REMARK   10  A    between atoms: _20  and  _22
REMARK   11  A    between atoms: _22  and  _23
REMARK   12  A    between atoms: _25  and  _27
REMARK   13  A    between atoms: _27  and  _28
REMARK   14  A    between atoms: _27  and  _30
REMARK   15  A    between atoms: _32  and  _34
REMARK   16  A    between atoms: _34  and  _35
REMARK   17  A    between atoms: _34  and  _37
REMARK   18  A    between atoms: _37  and  _38
REMARK   19  A    between atoms: _41  and  _43
REMARK   20  A    between atoms: _43  and  _44
REMARK   21  A    between atoms: _43  and  _46
REMARK   22  A    between atoms: _49  and  _51
REMARK   23  A    between atoms: _51  and  _52
REMARK   24  A    between atoms: _55  and  _57
REMARK   25  A    between atoms: _57  and  _58
REMARK   26  A    between atoms: _57  and  _60
REMARK   27  A    between atoms: _60  and  _61
REMARK   28  A    between atoms: _63  and  _65
REMARK   29  A    between atoms: _65  and  _66
REMARK   30  A    between atoms: _65  and  _68
REMARK   31  A    between atoms: _68  and  _69
REMARK   32  A    between atoms: _72  and  _74
REMARK   33  A    between atoms: _74  and  _75
REMARK   34  A    between atoms: _74  and  _77
REMARK   35  A    between atoms: _77  and  _78
REMARK   36  A    between atoms: _83  and  _85
REMARK   37  A    between atoms: _85  and  _86
REMARK   38  A    between atoms: _85  and  _88
REMARK   39  A    between atoms: _88  and  _89
REMARK   40  A    between atoms: _89  and  _90
REMARK   41  A    between atoms: _90  and  _91
REMARK   42  A    between atoms: _100  and  _102
REMARK   43  A    between atoms: _102  and  _103
REMARK   44  A    between atoms: _105  and  _107
REMARK   45  A    between atoms: _107  and  _108
REMARK   46  A    between atoms: _107  and  _110
REMARK   47  A    between atoms: _113  and  _115
REMARK   48  A    between atoms: _115  and  _116
REMARK   49  A    between atoms: _115  and  _118
REMARK   50  A    between atoms: _118  and  _119
REMARK   51  A    between atoms: _122  and  _124
REMARK   52  A    between atoms: _124  and  _125
REMARK   53  A    between atoms: _124  and  _127
REMARK   54  A    between atoms: _127  and  _128
REMARK   55  A    between atoms: _128  and  _129
REMARK   56  A    between atoms: _129  and  _130
REMARK   57  A    between atoms: _130  and  _131
REMARK   58  A    between atoms: _135  and  _137
REMARK   59  A    between atoms: _137  and  _138
REMARK   60  A    between atoms: _137  and  _140
REMARK   61  A    between atoms: _140  and  _141
REMARK   62  A    between atoms: _141  and  _142
REMARK   63  A    between atoms: _142  and  _143
REMARK   64  A    between atoms: _143  and  _144
REMARK   65  A    between atoms: _148  and  _150
REMARK   66  A    between atoms: _150  and  _151
REMARK   67  A    between atoms: _150  and  _153
REMARK   68  A    between atoms: _153  and  _154
REMARK   69  A    between atoms: _159  and  _161
REMARK   70  A    between atoms: _161  and  _162
REMARK   71  A    between atoms: _161  and  _164
REMARK   72  A    between atoms: _164  and  _165
REMARK   73  A    between atoms: _170  and  _172
REMARK   74  A    between atoms: _172  and  _173
REMARK   75  A    between atoms: _176  and  _178
REMARK   76  A    between atoms: _178  and  _179
REMARK   77  A    between atoms: _178  and  _181
REMARK   78  A    between atoms: _181  and  _182
REMARK   79  A    between atoms: _187  and  _189
REMARK   80  A    between atoms: _189  and  _190
REMARK   81  A    between atoms: _193  and  _195
REMARK   82  A    between atoms: _195  and  _196
REMARK   83  A    between atoms: _199  and  _201
REMARK   84  A    between atoms: _201  and  _202
REMARK   85  A    between atoms: _201  and  _204
REMARK   86  A    between atoms: _204  and  _205
REMARK   87  A    between atoms: _210  and  _212
REMARK   88  A    between atoms: _212  and  _213
REMARK   89  A    between atoms: _212  and  _215
REMARK   90  A    between atoms: _215  and  _216
REMARK   91  A    between atoms: _219  and  _221
REMARK   92  A    between atoms: _221  and  _222
REMARK   93  A    between atoms: _224  and  _226
REMARK   94  A    between atoms: _226  and  _227
REMARK   95  A    between atoms: _226  and  _229
REMARK   96  A    between atoms: _229  and  _230
REMARK   97  A    between atoms: _230  and  _231
REMARK   98  A    between atoms: _234  and  _236
REMARK   99  A    between atoms: _236  and  _237
REMARK  100  A    between atoms: _236  and  _239
REMARK  101  A    between atoms: _239  and  _240
REMARK  102  A    between atoms: _242  and  _244
REMARK  103  A    between atoms: _244  and  _245
REMARK  104  A    between atoms: _244  and  _247
REMARK  105  A    between atoms: _247  and  _248
REMARK  106  A    between atoms: _251  and  _253
REMARK  107  A    between atoms: _253  and  _254
REMARK  108  A    between atoms: _253  and  _256
REMARK  109  A    between atoms: _256  and  _257
REMARK  110  A    between atoms: _257  and  _258
REMARK  111  A    between atoms: _260  and  _262
REMARK  112  A    between atoms: _262  and  _263
REMARK  113  A    between atoms: _266  and  _268
REMARK  114  A    between atoms: _268  and  _269
REMARK  115  A    between atoms: _272  and  _274
REMARK  116  A    between atoms: _274  and  _275
REMARK  117  A    between atoms: _274  and  _277
REMARK  118  A    between atoms: _277  and  _278
REMARK  119  A    between atoms: _281  and  _283
REMARK  120  A    between atoms: _283  and  _284
REMARK  121  A    between atoms: _287  and  _289
REMARK  122  A    between atoms: _289  and  _290
REMARK  123  A    between atoms: _293  and  _295
REMARK  124  A    between atoms: _295  and  _296
REMARK  125  A    between atoms: _298  and  _300
REMARK  126  A    between atoms: _300  and  _301
REMARK  127  A    between atoms: _300  and  _303
REMARK  128  A    between atoms: _303  and  _304
REMARK  129  A    between atoms: _309  and  _311
REMARK  130  A    between atoms: _311  and  _312
REMARK  131  A    between atoms: _311  and  _314
REMARK  132  A    between atoms: _314  and  _315
REMARK  133  A    between atoms: _315  and  _316
REMARK  134  A    between atoms: _319  and  _321
REMARK  135  A    between atoms: _321  and  _322
REMARK  136  A    between atoms: _321  and  _324
REMARK  137  A    between atoms: _324  and  _325
REMARK  138  A    between atoms: _328  and  _330
REMARK  139  A    between atoms: _330  and  _331
REMARK  140  A    between atoms: _330  and  _333
REMARK  141  A    between atoms: _333  and  _334
REMARK  142  A    between atoms: _334  and  _335
REMARK  143  A    between atoms: _335  and  _336
REMARK  144  A    between atoms: _345  and  _347
REMARK  145  A    between atoms: _347  and  _348
REMARK  146  A    between atoms: _351  and  _352
REMARK  147  A    between atoms: _357  and  _359
REMARK  148  A    between atoms: _359  and  _360
REMARK  149  A    between atoms: _359  and  _362
REMARK  150  A    between atoms: _362  and  _363
REMARK  151  A    between atoms: _363  and  _364
REMARK  152  A    between atoms: _366  and  _368
REMARK  153  A    between atoms: _368  and  _369
REMARK  154  A    between atoms: _368  and  _371
REMARK  155  A    between atoms: _371  and  _372
REMARK  156  A    between atoms: _372  and  _373
REMARK  157  A    between atoms: _375  and  _377
REMARK  158  A    between atoms: _377  and  _378
REMARK  159  A    between atoms: _377  and  _380
REMARK  160  A    between atoms: _380  and  _381
REMARK  161  A    between atoms: _386  and  _388
REMARK  162  A    between atoms: _388  and  _389
REMARK  163  A    between atoms: _388  and  _391
REMARK  164  A    between atoms: _391  and  _392
REMARK  165  A    between atoms: _395  and  _397
REMARK  166  A    between atoms: _397  and  _398
REMARK  167  A    between atoms: _397  and  _400
REMARK  168  A    between atoms: _400  and  _401
REMARK  169  A    between atoms: _403  and  _405
REMARK  170  A    between atoms: _405  and  _406
REMARK  171  A    between atoms: _405  and  _408
REMARK  172  A    between atoms: _408  and  _409
REMARK  173  A    between atoms: _409  and  _410
REMARK  174  A    between atoms: _410  and  _411
REMARK  175  A    between atoms: _411  and  _412
REMARK  176  A    between atoms: _416  and  _418
REMARK  177  A    between atoms: _418  and  _419
REMARK  178  A    between atoms: _418  and  _421
REMARK  179  A    between atoms: _421  and  _422
REMARK  180  A    between atoms: _425  and  _427
REMARK  181  A    between atoms: _427  and  _428
REMARK  182  A    between atoms: _427  and  _430
REMARK  183  A    between atoms: _430  and  _431
REMARK  184  A    between atoms: _431  and  _432
REMARK  185  A    between atoms: _435  and  _437
REMARK  186  A    between atoms: _437  and  _438
REMARK  187  A    between atoms: _441  and  _443
REMARK  188  A    between atoms: _443  and  _444
REMARK  189  A    between atoms: _443  and  _446
REMARK  190  A    between atoms: _449  and  _451
REMARK  191  A    between atoms: _451  and  _452
REMARK  192  A    between atoms: _451  and  _454
REMARK  193  A    between atoms: _454  and  _455
REMARK  194  A    between atoms: _457  and  _459
REMARK  195  A    between atoms: _459  and  _460
REMARK  196  A    between atoms: _462  and  _464
REMARK  197  A    between atoms: _464  and  _465
REMARK  198  A    between atoms: _464  and  _467
REMARK  199  A    between atoms: _467  and  _468
REMARK  200  A    between atoms: _473  and  _475
REMARK  201  A    between atoms: _475  and  _476
REMARK  202  A    between atoms: _475  and  _478
REMARK  203  A    between atoms: _478  and  _479
REMARK  204  A    between atoms: _484  and  _485
REMARK  205  A    between atoms: _487  and  _489
REMARK  206  A    between atoms: _489  and  _490
REMARK  207  A    between atoms: _489  and  _492
REMARK  208  A    between atoms: _494  and  _496
REMARK  209  A    between atoms: _496  and  _497
REMARK  210  A    between atoms: _496  and  _499
REMARK  211  A    between atoms: _499  and  _500
REMARK  212  A    between atoms: _503  and  _505
REMARK  213  A    between atoms: _505  and  _506
REMARK  214  A    between atoms: _505  and  _508
REMARK  215  A    between atoms: _508  and  _509
REMARK  216  A    between atoms: _512  and  _514
REMARK  217  A    between atoms: _514  and  _515
REMARK  218  A    between atoms: _514  and  _517
REMARK  219  A    between atoms: _517  and  _518
REMARK  220  A    between atoms: _518  and  _519
REMARK  221  A    between atoms: _519  and  _520
REMARK  222  A    between atoms: _520  and  _521
REMARK  223  A    between atoms: _525  and  _527
REMARK  224  A    between atoms: _527  and  _528
REMARK  225  A    between atoms: _527  and  _530
REMARK  226  A    between atoms: _530  and  _531
REMARK  227  A    between atoms: _531  and  _532
REMARK  228  A    between atoms: _532  and  _533
REMARK  229  A    between atoms: _533  and  _534
REMARK  230  A    between atoms: _538  and  _540
REMARK  231  A    between atoms: _540  and  _541
REMARK  232  A    between atoms: _540  and  _543
REMARK  233  A    between atoms: _543  and  _544
REMARK  234  A    between atoms: _544  and  _545
REMARK  235  A    between atoms: _545  and  _546
REMARK  236  A    between atoms: _555  and  _557
REMARK  237  A    between atoms: _557  and  _558
REMARK  238  A    between atoms: _557  and  _560
REMARK  239  A    between atoms: _560  and  _561
REMARK  240  A    between atoms: _564  and  _566
REMARK  241  A    between atoms: _566  and  _567
REMARK  242  A    between atoms: _570  and  _572
REMARK  243  A    between atoms: _572  and  _573
REMARK  244  A    between atoms: _572  and  _575
REMARK  245  A    between atoms: _575  and  _576
REMARK  246  A    between atoms: _576  and  _577
REMARK                            x       y       z     vdW  Elec       q    Type
REMARK                         _______ _______ _______ _____ _____    ______ ____
ROOT
ATOM      1  O   HOH     1      30.078 -15.891  -6.201  0.00  0.00    +0.000 OA
ENDROOT
TORSDOF 0
REMARK  Name = ../refined-set-2016/3cct/3cct_pocket.pdb
REMARK  246 active torsions:
REMARK  status: ('A' for Active; 'I' for Inactive)
REMARK    1  A    between atoms: _1  and  _3
REMARK    2  A    between atoms: _3  and  _4
REMARK    3  A    between atoms: _3  and  _6
REMARK    4  A    between atoms: _6  and  _7
REMARK    5  A    between atoms: _10  and  _12
REMARK    6  A    between atoms: _12  and  _13
REMARK    7  A    between atoms: _12  and  _15
REMARK    8  A    between atoms: _15  and  _16
REMARK    9  A    between atoms: _16  and  _17
REMARK   10  A    between atoms: _20  and  _22
REMARK   11  A    between atoms: _22  and  _23
REMARK   12  A    between atoms: _25  and  _27
REMARK   13  A    between atoms: _27  and  _28
REMARK   14  A    between atoms: _27  and  _30
REMARK   15  A    between atoms: _32  and  _34
REMARK   16  A    between atoms: _34  and  _35
REMARK   17  A    between atoms: _34  and  _37
REMARK   18  A    between atoms: _37  and  _38
REMARK   19  A    between atoms: _41  and  _43
REMARK   20  A    between atoms: _43  and  _44
REMARK   21  A    between atoms: _43  and  _46
REMARK   22  A    between atoms: _49  and  _51
REMARK   23  A    between atoms: _51  and  _52
REMARK   24  A    between atoms: _55  and  _57
REMARK   25  A    between atoms: _57  and  _58
REMARK   26  A    between atoms: _57  and  _60
REMARK   27  A    between atoms: _60  and  _61
REMARK   28  A    between atoms: _63  and  _65
REMARK   29  A    between atoms: _65  and  _66
REMARK   30  A    between atoms: _65  and  _68
REMARK   31  A    between atoms: _68  and  _69
REMARK   32  A    between atoms: _72  and  _74
REMARK   33  A    between atoms: _74  and  _75
REMARK   34  A    between atoms: _74  and  _77
REMARK   35  A    between atoms: _77  and  _78
REMARK   36  A    between atoms: _83  and  _85
REMARK   37  A    between atoms: _85  and  _86
REMARK   38  A    between atoms: _85  and  _88
REMARK   39  A    between atoms: _88  and  _89
REMARK   40  A    between atoms: _89  and  _90
REMARK   41  A    between atoms: _90  and  _91
REMARK   42  A    between atoms: _100  and  _102
REMARK   43  A    between atoms: _102  and  _103
REMARK   44  A    between atoms: _105  and  _107
REMARK   45  A    between atoms: _107  and  _108
REMARK   46  A    between atoms: _107  and  _110
REMARK   47  A    between atoms: _113  and  _115
REMARK   48  A    between atoms: _115  and  _116
REMARK   49  A    between atoms: _115  and  _118
REMARK   50  A    between atoms: _118  and  _119
REMARK   51  A    between atoms: _122  and  _124
REMARK   52  A    between atoms: _124  and  _125
REMARK   53  A    between atoms: _124  and  _127
REMARK   54  A    between atoms: _127  and  _128
REMARK   55  A    between atoms: _128  and  _129
REMARK   56  A    between atoms: _129  and  _130
REMARK   57  A    between atoms: _130  and  _131
REMARK   58  A    between atoms: _135  and  _137
REMARK   59  A    between atoms: _137  and  _138
REMARK   60  A    between atoms: _137  and  _140
REMARK   61  A    between atoms: _140  and  _141
REMARK   62  A    between atoms: _141  and  _142
REMARK   63  A    between atoms: _142  and  _143
REMARK   64  A    between atoms: _143  and  _144
REMARK   65  A    between atoms: _148  and  _150
REMARK   66  A    between atoms: _150  and  _151
REMARK   67  A    between atoms: _150  and  _153
REMARK   68  A    between atoms: _153  and  _154
REMARK   69  A    between atoms: _159  and  _161
REMARK   70  A    between atoms: _161  and  _162
REMARK   71  A    between atoms: _161  and  _164
REMARK   72  A    between atoms: _164  and  _165
REMARK   73  A    between atoms: _170  and  _172
REMARK   74  A    between atoms: _172  and  _173
REMARK   75  A    between atoms: _176  and  _178
REMARK   76  A    between atoms: _178  and  _179
REMARK   77  A    between atoms: _178  and  _181
REMARK   78  A    between atoms: _181  and  _182
REMARK   79  A    between atoms: _187  and  _189
REMARK   80  A    between atoms: _189  and  _190
REMARK   81  A    between atoms: _193  and  _195
REMARK   82  A    between atoms: _195  and  _196
REMARK   83  A    between atoms: _199  and  _201
REMARK   84  A    between atoms: _201  and  _202
REMARK   85  A    between atoms: _201  and  _204
REMARK   86  A    between atoms: _204  and  _205
REMARK   87  A    between atoms: _210  and  _212
REMARK   88  A    between atoms: _212  and  _213
REMARK   89  A    between atoms: _212  and  _215
REMARK   90  A    between atoms: _215  and  _216
REMARK   91  A    between atoms: _219  and  _221
REMARK   92  A    between atoms: _221  and  _222
REMARK   93  A    between atoms: _224  and  _226
REMARK   94  A    between atoms: _226  and  _227
REMARK   95  A    between atoms: _226  and  _229
REMARK   96  A    between atoms: _229  and  _230
REMARK   97  A    between atoms: _230  and  _231
REMARK   98  A    between atoms: _234  and  _236
REMARK   99  A    between atoms: _236  and  _237
REMARK  100  A    between atoms: _236  and  _239
REMARK  101  A    between atoms: _239  and  _240
REMARK  102  A    between atoms: _242  and  _244
REMARK  103  A    between atoms: _244  and  _245
REMARK  104  A    between atoms: _244  and  _247
REMARK  105  A    between atoms: _247  and  _248
REMARK  106  A    between atoms: _251  and  _253
REMARK  107  A    between atoms: _253  and  _254
REMARK  108  A    between atoms: _253  and  _256
REMARK  109  A    between atoms: _256  and  _257
REMARK  110  A    between atoms: _257  and  _258
REMARK  111  A    between atoms: _260  and  _262
REMARK  112  A    between atoms: _262  and  _263
REMARK  113  A    between atoms: _266  and  _268
REMARK  114  A    between atoms: _268  and  _269
REMARK  115  A    between atoms: _272  and  _274
REMARK  116  A    between atoms: _274  and  _275
REMARK  117  A    between atoms: _274  and  _277
REMARK  118  A    between atoms: _277  and  _278
REMARK  119  A    between atoms: _281  and  _283
REMARK  120  A    between atoms: _283  and  _284
REMARK  121  A    between atoms: _287  and  _289
REMARK  122  A    between atoms: _289  and  _290
REMARK  123  A    between atoms: _293  and  _295
REMARK  124  A    between atoms: _295  and  _296
REMARK  125  A    between atoms: _298  and  _300
REMARK  126  A    between atoms: _300  and  _301
REMARK  127  A    between atoms: _300  and  _303
REMARK  128  A    between atoms: _303  and  _304
REMARK  129  A    between atoms: _309  and  _311
REMARK  130  A    between atoms: _311  and  _312
REMARK  131  A    between atoms: _311  and  _314
REMARK  132  A    between atoms: _314  and  _315
REMARK  133  A    between atoms: _315  and  _316
REMARK  134  A    between atoms: _319  and  _321
REMARK  135  A    between atoms: _321  and  _322
REMARK  136  A    between atoms: _321  and  _324
REMARK  137  A    between atoms: _324  and  _325
REMARK  138  A    between atoms: _328  and  _330
REMARK  139  A    between atoms: _330  and  _331
REMARK  140  A    between atoms: _330  and  _333
REMARK  141  A    between atoms: _333  and  _334
REMARK  142  A    between atoms: _334  and  _335
REMARK  143  A    between atoms: _335  and  _336
REMARK  144  A    between atoms: _345  and  _347
REMARK  145  A    between atoms: _347  and  _348
REMARK  146  A    between atoms: _351  and  _352
REMARK  147  A    between atoms: _357  and  _359
REMARK  148  A    between atoms: _359  and  _360
REMARK  149  A    between atoms: _359  and  _362
REMARK  150  A    between atoms: _362  and  _363
REMARK  151  A    between atoms: _363  and  _364
REMARK  152  A    between atoms: _366  and  _368
REMARK  153  A    between atoms: _368  and  _369
REMARK  154  A    between atoms: _368  and  _371
REMARK  155  A    between atoms: _371  and  _372
REMARK  156  A    between atoms: _372  and  _373
REMARK  157  A    between atoms: _375  and  _377
REMARK  158  A    between atoms: _377  and  _378
REMARK  159  A    between atoms: _377  and  _380
REMARK  160  A    between atoms: _380  and  _381
REMARK  161  A    between atoms: _386  and  _388
REMARK  162  A    between atoms: _388  and  _389
REMARK  163  A    between atoms: _388  and  _391
REMARK  164  A    between atoms: _391  and  _392
REMARK  165  A    between atoms: _395  and  _397
REMARK  166  A    between atoms: _397  and  _398
REMARK  167  A    between atoms: _397  and  _400
REMARK  168  A    between atoms: _400  and  _401
REMARK  169  A    between atoms: _403  and  _405
REMARK  170  A    between atoms: _405  and  _406
REMARK  171  A    between atoms: _405  and  _408
REMARK  172  A    between atoms: _408  and  _409
REMARK  173  A    between atoms: _409  and  _410
REMARK  174  A    between atoms: _410  and  _411
REMARK  175  A    between atoms: _411  and  _412
REMARK  176  A    between atoms: _416  and  _418
REMARK  177  A    between atoms: _418  and  _419
REMARK  178  A    between atoms: _418  and  _421
REMARK  179  A    between atoms: _421  and  _422
REMARK  180  A    between atoms: _425  and  _427
REMARK  181  A    between atoms: _427  and  _428
REMARK  182  A    between atoms: _427  and  _430
REMARK  183  A    between atoms: _430  and  _431
REMARK  184  A    between atoms: _431  and  _432
REMARK  185  A    between atoms: _435  and  _437
REMARK  186  A    between atoms: _437  and  _438
REMARK  187  A    between atoms: _441  and  _443
REMARK  188  A    between atoms: _443  and  _444
REMARK  189  A    between atoms: _443  and  _446
REMARK  190  A    between atoms: _449  and  _451
REMARK  191  A    between atoms: _451  and  _452
REMARK  192  A    between atoms: _451  and  _454
REMARK  193  A    between atoms: _454  and  _455
REMARK  194  A    between atoms: _457  and  _459
REMARK  195  A    between atoms: _459  and  _460
REMARK  196  A    between atoms: _462  and  _464
REMARK  197  A    between atoms: _464  and  _465
REMARK  198  A    between atoms: _464  and  _467
REMARK  199  A    between atoms: _467  and  _468
REMARK  200  A    between atoms: _473  and  _475
REMARK  201  A    between atoms: _475  and  _476
REMARK  202  A    between atoms: _475  and  _478
REMARK  203  A    between atoms: _478  and  _479
REMARK  204  A    between atoms: _484  and  _485
REMARK  205  A    between atoms: _487  and  _489
REMARK  206  A    between atoms: _489  and  _490
REMARK  207  A    between atoms: _489  and  _492
REMARK  208  A    between atoms: _494  and  _496
REMARK  209  A    between atoms: _496  and  _497
REMARK  210  A    between atoms: _496  and  _499
REMARK  211  A    between atoms: _499  and  _500
REMARK  212  A    between atoms: _503  and  _505
REMARK  213  A    between atoms: _505  and  _506
REMARK  214  A    between atoms: _505  and  _508
REMARK  215  A    between atoms: _508  and  _509
REMARK  216  A    between atoms: _512  and  _514
REMARK  217  A    between atoms: _514  and  _515
REMARK  218  A    between atoms: _514  and  _517
REMARK  219  A    between atoms: _517  and  _518
REMARK  220  A    between atoms: _518  and  _519
REMARK  221  A    between atoms: _519  and  _520
REMARK  222  A    between atoms: _520  and  _521
REMARK  223  A    between atoms: _525  and  _527
REMARK  224  A    between atoms: _527  and  _528
REMARK  225  A    between atoms: _527  and  _530
REMARK  226  A    between atoms: _530  and  _531
REMARK  227  A    between atoms: _531  and  _532
REMARK  228  A    between atoms: _532  and  _533
REMARK  229  A    between atoms: _533  and  _534
REMARK  230  A    between atoms: _538  and  _540
REMARK  231  A    between atoms: _540  and  _541
REMARK  232  A    between atoms: _540  and  _543
REMARK  233  A    between atoms: _543  and  _544
REMARK  234  A    between atoms: _544  and  _545
REMARK  235  A    between atoms: _545  and  _546
REMARK  236  A    between atoms: _555  and  _557
REMARK  237  A    between atoms: _557  and  _558
REMARK  238  A    between atoms: _557  and  _560
REMARK  239  A    between atoms: _560  and  _561
REMARK  240  A    between atoms: _564  and  _566
REMARK  241  A    between atoms: _566  and  _567
REMARK  242  A    between atoms: _570  and  _572
REMARK  243  A    between atoms: _572  and  _573
REMARK  244  A    between atoms: _572  and  _575
REMARK  245  A    between atoms: _575  and  _576
REMARK  246  A    between atoms: _576  and  _577
REMARK                            x       y       z     vdW  Elec       q    Type
REMARK                         _______ _______ _______ _____ _____    ______ ____
ROOT
ATOM      1  O   HOH     1      38.048 -11.052  -3.772  0.00  0.00    +0.000 OA
ENDROOT
TORSDOF 0
REMARK  Name = ../refined-set-2016/3cct/3cct_pocket.pdb
REMARK  246 active torsions:
REMARK  status: ('A' for Active; 'I' for Inactive)
REMARK    1  A    between atoms: _1  and  _3
REMARK    2  A    between atoms: _3  and  _4
REMARK    3  A    between atoms: _3  and  _6
REMARK    4  A    between atoms: _6  and  _7
REMARK    5  A    between atoms: _10  and  _12
REMARK    6  A    between atoms: _12  and  _13
REMARK    7  A    between atoms: _12  and  _15
REMARK    8  A    between atoms: _15  and  _16
REMARK    9  A    between atoms: _16  and  _17
REMARK   10  A    between atoms: _20  and  _22
REMARK   11  A    between atoms: _22  and  _23
REMARK   12  A    between atoms: _25  and  _27
REMARK   13  A    between atoms: _27  and  _28
REMARK   14  A    between atoms: _27  and  _30
REMARK   15  A    between atoms: _32  and  _34
REMARK   16  A    between atoms: _34  and  _35
REMARK   17  A    between atoms: _34  and  _37
REMARK   18  A    between atoms: _37  and  _38
REMARK   19  A    between atoms: _41  and  _43
REMARK   20  A    between atoms: _43  and  _44
REMARK   21  A    between atoms: _43  and  _46
REMARK   22  A    between atoms: _49  and  _51
REMARK   23  A    between atoms: _51  and  _52
REMARK   24  A    between atoms: _55  and  _57
REMARK   25  A    between atoms: _57  and  _58
REMARK   26  A    between atoms: _57  and  _60
REMARK   27  A    between atoms: _60  and  _61
REMARK   28  A    between atoms: _63  and  _65
REMARK   29  A    between atoms: _65  and  _66
REMARK   30  A    between atoms: _65  and  _68
REMARK   31  A    between atoms: _68  and  _69
REMARK   32  A    between atoms: _72  and  _74
REMARK   33  A    between atoms: _74  and  _75
REMARK   34  A    between atoms: _74  and  _77
REMARK   35  A    between atoms: _77  and  _78
REMARK   36  A    between atoms: _83  and  _85
REMARK   37  A    between atoms: _85  and  _86
REMARK   38  A    between atoms: _85  and  _88
REMARK   39  A    between atoms: _88  and  _89
REMARK   40  A    between atoms: _89  and  _90
REMARK   41  A    between atoms: _90  and  _91
REMARK   42  A    between atoms: _100  and  _102
REMARK   43  A    between atoms: _102  and  _103
REMARK   44  A    between atoms: _105  and  _107
REMARK   45  A    between atoms: _107  and  _108
REMARK   46  A    between atoms: _107  and  _110
REMARK   47  A    between atoms: _113  and  _115
REMARK   48  A    between atoms: _115  and  _116
REMARK   49  A    between atoms: _115  and  _118
REMARK   50  A    between atoms: _118  and  _119
REMARK   51  A    between atoms: _122  and  _124
REMARK   52  A    between atoms: _124  and  _125
REMARK   53  A    between atoms: _124  and  _127
REMARK   54  A    between atoms: _127  and  _128
REMARK   55  A    between atoms: _128  and  _129
REMARK   56  A    between atoms: _129  and  _130
REMARK   57  A    between atoms: _130  and  _131
REMARK   58  A    between atoms: _135  and  _137
REMARK   59  A    between atoms: _137  and  _138
REMARK   60  A    between atoms: _137  and  _140
REMARK   61  A    between atoms: _140  and  _141
REMARK   62  A    between atoms: _141  and  _142
REMARK   63  A    between atoms: _142  and  _143
REMARK   64  A    between atoms: _143  and  _144
REMARK   65  A    between atoms: _148  and  _150
REMARK   66  A    between atoms: _150  and  _151
REMARK   67  A    between atoms: _150  and  _153
REMARK   68  A    between atoms: _153  and  _154
REMARK   69  A    between atoms: _159  and  _161
REMARK   70  A    between atoms: _161  and  _162
REMARK   71  A    between atoms: _161  and  _164
REMARK   72  A    between atoms: _164  and  _165
REMARK   73  A    between atoms: _170  and  _172
REMARK   74  A    between atoms: _172  and  _173
REMARK   75  A    between atoms: _176  and  _178
REMARK   76  A    between atoms: _178  and  _179
REMARK   77  A    between atoms: _178  and  _181
REMARK   78  A    between atoms: _181  and  _182
REMARK   79  A    between atoms: _187  and  _189
REMARK   80  A    between atoms: _189  and  _190
REMARK   81  A    between atoms: _193  and  _195
REMARK   82  A    between atoms: _195  and  _196
REMARK   83  A    between atoms: _199  and  _201
REMARK   84  A    between atoms: _201  and  _202
REMARK   85  A    between atoms: _201  and  _204
REMARK   86  A    between atoms: _204  and  _205
REMARK   87  A    between atoms: _210  and  _212
REMARK   88  A    between atoms: _212  and  _213
REMARK   89  A    between atoms: _212  and  _215
REMARK   90  A    between atoms: _215  and  _216
REMARK   91  A    between atoms: _219  and  _221
REMARK   92  A    between atoms: _221  and  _222
REMARK   93  A    between atoms: _224  and  _226
REMARK   94  A    between atoms: _226  and  _227
REMARK   95  A    between atoms: _226  and  _229
REMARK   96  A    between atoms: _229  and  _230
REMARK   97  A    between atoms: _230  and  _231
REMARK   98  A    between atoms: _234  and  _236
REMARK   99  A    between atoms: _236  and  _237
REMARK  100  A    between atoms: _236  and  _239
REMARK  101  A    between atoms: _239  and  _240
REMARK  102  A    between atoms: _242  and  _244
REMARK  103  A    between atoms: _244  and  _245
REMARK  104  A    between atoms: _244  and  _247
REMARK  105  A    between atoms: _247  and  _248
REMARK  106  A    between atoms: _251  and  _253
REMARK  107  A    between atoms: _253  and  _254
REMARK  108  A    between atoms: _253  and  _256
REMARK  109  A    between atoms: _256  and  _257
REMARK  110  A    between atoms: _257  and  _258
REMARK  111  A    between atoms: _260  and  _262
REMARK  112  A    between atoms: _262  and  _263
REMARK  113  A    between atoms: _266  and  _268
REMARK  114  A    between atoms: _268  and  _269
REMARK  115  A    between atoms: _272  and  _274
REMARK  116  A    between atoms: _274  and  _275
REMARK  117  A    between atoms: _274  and  _277
REMARK  118  A    between atoms: _277  and  _278
REMARK  119  A    between atoms: _281  and  _283
REMARK  120  A    between atoms: _283  and  _284
REMARK  121  A    between atoms: _287  and  _289
REMARK  122  A    between atoms: _289  and  _290
REMARK  123  A    between atoms: _293  and  _295
REMARK  124  A    between atoms: _295  and  _296
REMARK  125  A    between atoms: _298  and  _300
REMARK  126  A    between atoms: _300  and  _301
REMARK  127  A    between atoms: _300  and  _303
REMARK  128  A    between atoms: _303  and  _304
REMARK  129  A    between atoms: _309  and  _311
REMARK  130  A    between atoms: _311  and  _312
REMARK  131  A    between atoms: _311  and  _314
REMARK  132  A    between atoms: _314  and  _315
REMARK  133  A    between atoms: _315  and  _316
REMARK  134  A    between atoms: _319  and  _321
REMARK  135  A    between atoms: _321  and  _322
REMARK  136  A    between atoms: _321  and  _324
REMARK  137  A    between atoms: _324  and  _325
REMARK  138  A    between atoms: _328  and  _330
REMARK  139  A    between atoms: _330  and  _331
REMARK  140  A    between atoms: _330  and  _333
REMARK  141  A    between atoms: _333  and  _334
REMARK  142  A    between atoms: _334  and  _335
REMARK  143  A    between atoms: _335  and  _336
REMARK  144  A    between atoms: _345  and  _347
REMARK  145  A    between atoms: _347  and  _348
REMARK  146  A    between atoms: _351  and  _352
REMARK  147  A    between atoms: _357  and  _359
REMARK  148  A    between atoms: _359  and  _360
REMARK  149  A    between atoms: _359  and  _362
REMARK  150  A    between atoms: _362  and  _363
REMARK  151  A    between atoms: _363  and  _364
REMARK  152  A    between atoms: _366  and  _368
REMARK  153  A    between atoms: _368  and  _369
REMARK  154  A    between atoms: _368  and  _371
REMARK  155  A    between atoms: _371  and  _372
REMARK  156  A    between atoms: _372  and  _373
REMARK  157  A    between atoms: _375  and  _377
REMARK  158  A    between atoms: _377  and  _378
REMARK  159  A    between atoms: _377  and  _380
REMARK  160  A    between atoms: _380  and  _381
REMARK  161  A    between atoms: _386  and  _388
REMARK  162  A    between atoms: _388  and  _389
REMARK  163  A    between atoms: _388  and  _391
REMARK  164  A    between atoms: _391  and  _392
REMARK  165  A    between atoms: _395  and  _397
REMARK  166  A    between atoms: _397  and  _398
REMARK  167  A    between atoms: _397  and  _400
REMARK  168  A    between atoms: _400  and  _401
REMARK  169  A    between atoms: _403  and  _405
REMARK  170  A    between atoms: _405  and  _406
REMARK  171  A    between atoms: _405  and  _408
REMARK  172  A    between atoms: _408  and  _409
REMARK  173  A    between atoms: _409  and  _410
REMARK  174  A    between atoms: _410  and  _411
REMARK  175  A    between atoms: _411  and  _412
REMARK  176  A    between atoms: _416  and  _418
REMARK  177  A    between atoms: _418  and  _419
REMARK  178  A    between atoms: _418  and  _421
REMARK  179  A    between atoms: _421  and  _422
REMARK  180  A    between atoms: _425  and  _427
REMARK  181  A    between atoms: _427  and  _428
REMARK  182  A    between atoms: _427  and  _430
REMARK  183  A    between atoms: _430  and  _431
REMARK  184  A    between atoms: _431  and  _432
REMARK  185  A    between atoms: _435  and  _437
REMARK  186  A    between atoms: _437  and  _438
REMARK  187  A    between atoms: _441  and  _443
REMARK  188  A    between atoms: _443  and  _444
REMARK  189  A    between atoms: _443  and  _446
REMARK  190  A    between atoms: _449  and  _451
REMARK  191  A    between atoms: _451  and  _452
REMARK  192  A    between atoms: _451  and  _454
REMARK  193  A    between atoms: _454  and  _455
REMARK  194  A    between atoms: _457  and  _459
REMARK  195  A    between atoms: _459  and  _460
REMARK  196  A    between atoms: _462  and  _464
REMARK  197  A    between atoms: _464  and  _465
REMARK  198  A    between atoms: _464  and  _467
REMARK  199  A    between atoms: _467  and  _468
REMARK  200  A    between atoms: _473  and  _475
REMARK  201  A    between atoms: _475  and  _476
REMARK  202  A    between atoms: _475  and  _478
REMARK  203  A    between atoms: _478  and  _479
REMARK  204  A    between atoms: _484  and  _485
REMARK  205  A    between atoms: _487  and  _489
REMARK  206  A    between atoms: _489  and  _490
REMARK  207  A    between atoms: _489  and  _492
REMARK  208  A    between atoms: _494  and  _496
REMARK  209  A    between atoms: _496  and  _497
REMARK  210  A    between atoms: _496  and  _499
REMARK  211  A    between atoms: _499  and  _500
REMARK  212  A    between atoms: _503  and  _505
REMARK  213  A    between atoms: _505  and  _506
REMARK  214  A    between atoms: _505  and  _508
REMARK  215  A    between atoms: _508  and  _509
REMARK  216  A    between atoms: _512  and  _514
REMARK  217  A    between atoms: _514  and  _515
REMARK  218  A    between atoms: _514  and  _517
REMARK  219  A    between atoms: _517  and  _518
REMARK  220  A    between atoms: _518  and  _519
REMARK  221  A    between atoms: _519  and  _520
REMARK  222  A    between atoms: _520  and  _521
REMARK  223  A    between atoms: _525  and  _527
REMARK  224  A    between atoms: _527  and  _528
REMARK  225  A    between atoms: _527  and  _530
REMARK  226  A    between atoms: _530  and  _531
REMARK  227  A    between atoms: _531  and  _532
REMARK  228  A    between atoms: _532  and  _533
REMARK  229  A    between atoms: _533  and  _534
REMARK  230  A    between atoms: _538  and  _540
REMARK  231  A    between atoms: _540  and  _541
REMARK  232  A    between atoms: _540  and  _543
REMARK  233  A    between atoms: _543  and  _544
REMARK  234  A    between atoms: _544  and  _545
REMARK  235  A    between atoms: _545  and  _546
REMARK  236  A    between atoms: _555  and  _557
REMARK  237  A    between atoms: _557  and  _558
REMARK  238  A    between atoms: _557  and  _560
REMARK  239  A    between atoms: _560  and  _561
REMARK  240  A    between atoms: _564  and  _566
REMARK  241  A    between atoms: _566  and  _567
REMARK  242  A    between atoms: _570  and  _572
REMARK  243  A    between atoms: _572  and  _573
REMARK  244  A    between atoms: _572  and  _575
REMARK  245  A    between atoms: _575  and  _576
REMARK  246  A    between atoms: _576  and  _577
REMARK                            x       y       z     vdW  Elec       q    Type
REMARK                         _______ _______ _______ _____ _____    ______ ____
ROOT
ATOM      1  O   HOH     1      36.553   1.938 -12.930  0.00  0.00    +0.000 OA
ENDROOT
TORSDOF 0
REMARK  Name = ../refined-set-2016/3cct/3cct_pocket.pdb
REMARK  246 active torsions:
REMARK  status: ('A' for Active; 'I' for Inactive)
REMARK    1  A    between atoms: _1  and  _3
REMARK    2  A    between atoms: _3  and  _4
REMARK    3  A    between atoms: _3  and  _6
REMARK    4  A    between atoms: _6  and  _7
REMARK    5  A    between atoms: _10  and  _12
REMARK    6  A    between atoms: _12  and  _13
REMARK    7  A    between atoms: _12  and  _15
REMARK    8  A    between atoms: _15  and  _16
REMARK    9  A    between atoms: _16  and  _17
REMARK   10  A    between atoms: _20  and  _22
REMARK   11  A    between atoms: _22  and  _23
REMARK   12  A    between atoms: _25  and  _27
REMARK   13  A    between atoms: _27  and  _28
REMARK   14  A    between atoms: _27  and  _30
REMARK   15  A    between atoms: _32  and  _34
REMARK   16  A    between atoms: _34  and  _35
REMARK   17  A    between atoms: _34  and  _37
REMARK   18  A    between atoms: _37  and  _38
REMARK   19  A    between atoms: _41  and  _43
REMARK   20  A    between atoms: _43  and  _44
REMARK   21  A    between atoms: _43  and  _46
REMARK   22  A    between atoms: _49  and  _51
REMARK   23  A    between atoms: _51  and  _52
REMARK   24  A    between atoms: _55  and  _57
REMARK   25  A    between atoms: _57  and  _58
REMARK   26  A    between atoms: _57  and  _60
REMARK   27  A    between atoms: _60  and  _61
REMARK   28  A    between atoms: _63  and  _65
REMARK   29  A    between atoms: _65  and  _66
REMARK   30  A    between atoms: _65  and  _68
REMARK   31  A    between atoms: _68  and  _69
REMARK   32  A    between atoms: _72  and  _74
REMARK   33  A    between atoms: _74  and  _75
REMARK   34  A    between atoms: _74  and  _77
REMARK   35  A    between atoms: _77  and  _78
REMARK   36  A    between atoms: _83  and  _85
REMARK   37  A    between atoms: _85  and  _86
REMARK   38  A    between atoms: _85  and  _88
REMARK   39  A    between atoms: _88  and  _89
REMARK   40  A    between atoms: _89  and  _90
REMARK   41  A    between atoms: _90  and  _91
REMARK   42  A    between atoms: _100  and  _102
REMARK   43  A    between atoms: _102  and  _103
REMARK   44  A    between atoms: _105  and  _107
REMARK   45  A    between atoms: _107  and  _108
REMARK   46  A    between atoms: _107  and  _110
REMARK   47  A    between atoms: _113  and  _115
REMARK   48  A    between atoms: _115  and  _116
REMARK   49  A    between atoms: _115  and  _118
REMARK   50  A    between atoms: _118  and  _119
REMARK   51  A    between atoms: _122  and  _124
REMARK   52  A    between atoms: _124  and  _125
REMARK   53  A    between atoms: _124  and  _127
REMARK   54  A    between atoms: _127  and  _128
REMARK   55  A    between atoms: _128  and  _129
REMARK   56  A    between atoms: _129  and  _130
REMARK   57  A    between atoms: _130  and  _131
REMARK   58  A    between atoms: _135  and  _137
REMARK   59  A    between atoms: _137  and  _138
REMARK   60  A    between atoms: _137  and  _140
REMARK   61  A    between atoms: _140  and  _141
REMARK   62  A    between atoms: _141  and  _142
REMARK   63  A    between atoms: _142  and  _143
REMARK   64  A    between atoms: _143  and  _144
REMARK   65  A    between atoms: _148  and  _150
REMARK   66  A    between atoms: _150  and  _151
REMARK   67  A    between atoms: _150  and  _153
REMARK   68  A    between atoms: _153  and  _154
REMARK   69  A    between atoms: _159  and  _161
REMARK   70  A    between atoms: _161  and  _162
REMARK   71  A    between atoms: _161  and  _164
REMARK   72  A    between atoms: _164  and  _165
REMARK   73  A    between atoms: _170  and  _172
REMARK   74  A    between atoms: _172  and  _173
REMARK   75  A    between atoms: _176  and  _178
REMARK   76  A    between atoms: _178  and  _179
REMARK   77  A    between atoms: _178  and  _181
REMARK   78  A    between atoms: _181  and  _182
REMARK   79  A    between atoms: _187  and  _189
REMARK   80  A    between atoms: _189  and  _190
REMARK   81  A    between atoms: _193  and  _195
REMARK   82  A    between atoms: _195  and  _196
REMARK   83  A    between atoms: _199  and  _201
REMARK   84  A    between atoms: _201  and  _202
REMARK   85  A    between atoms: _201  and  _204
REMARK   86  A    between atoms: _204  and  _205
REMARK   87  A    between atoms: _210  and  _212
REMARK   88  A    between atoms: _212  and  _213
REMARK   89  A    between atoms: _212  and  _215
REMARK   90  A    between atoms: _215  and  _216
REMARK   91  A    between atoms: _219  and  _221
REMARK   92  A    between atoms: _221  and  _222
REMARK   93  A    between atoms: _224  and  _226
REMARK   94  A    between atoms: _226  and  _227
REMARK   95  A    between atoms: _226  and  _229
REMARK   96  A    between atoms: _229  and  _230
REMARK   97  A    between atoms: _230  and  _231
REMARK   98  A    between atoms: _234  and  _236
REMARK   99  A    between atoms: _236  and  _237
REMARK  100  A    between atoms: _236  and  _239
REMARK  101  A    between atoms: _239  and  _240
REMARK  102  A    between atoms: _242  and  _244
REMARK  103  A    between atoms: _244  and  _245
REMARK  104  A    between atoms: _244  and  _247
REMARK  105  A    between atoms: _247  and  _248
REMARK  106  A    between atoms: _251  and  _253
REMARK  107  A    between atoms: _253  and  _254
REMARK  108  A    between atoms: _253  and  _256
REMARK  109  A    between atoms: _256  and  _257
REMARK  110  A    between atoms: _257  and  _258
REMARK  111  A    between atoms: _260  and  _262
REMARK  112  A    between atoms: _262  and  _263
REMARK  113  A    between atoms: _266  and  _268
REMARK  114  A    between atoms: _268  and  _269
REMARK  115  A    between atoms: _272  and  _274
REMARK  116  A    between atoms: _274  and  _275
REMARK  117  A    between atoms: _274  and  _277
REMARK  118  A    between atoms: _277  and  _278
REMARK  119  A    between atoms: _281  and  _283
REMARK  120  A    between atoms: _283  and  _284
REMARK  121  A    between atoms: _287  and  _289
REMARK  122  A    between atoms: _289  and  _290
REMARK  123  A    between atoms: _293  and  _295
REMARK  124  A    between atoms: _295  and  _296
REMARK  125  A    between atoms: _298  and  _300
REMARK  126  A    between atoms: _300  and  _301
REMARK  127  A    between atoms: _300  and  _303
REMARK  128  A    between atoms: _303  and  _304
REMARK  129  A    between atoms: _309  and  _311
REMARK  130  A    between atoms: _311  and  _312
REMARK  131  A    between atoms: _311  and  _314
REMARK  132  A    between atoms: _314  and  _315
REMARK  133  A    between atoms: _315  and  _316
REMARK  134  A    between atoms: _319  and  _321
REMARK  135  A    between atoms: _321  and  _322
REMARK  136  A    between atoms: _321  and  _324
REMARK  137  A    between atoms: _324  and  _325
REMARK  138  A    between atoms: _328  and  _330
REMARK  139  A    between atoms: _330  and  _331
REMARK  140  A    between atoms: _330  and  _333
REMARK  141  A    between atoms: _333  and  _334
REMARK  142  A    between atoms: _334  and  _335
REMARK  143  A    between atoms: _335  and  _336
REMARK  144  A    between atoms: _345  and  _347
REMARK  145  A    between atoms: _347  and  _348
REMARK  146  A    between atoms: _351  and  _352
REMARK  147  A    between atoms: _357  and  _359
REMARK  148  A    between atoms: _359  and  _360
REMARK  149  A    between atoms: _359  and  _362
REMARK  150  A    between atoms: _362  and  _363
REMARK  151  A    between atoms: _363  and  _364
REMARK  152  A    between atoms: _366  and  _368
REMARK  153  A    between atoms: _368  and  _369
REMARK  154  A    between atoms: _368  and  _371
REMARK  155  A    between atoms: _371  and  _372
REMARK  156  A    between atoms: _372  and  _373
REMARK  157  A    between atoms: _375  and  _377
REMARK  158  A    between atoms: _377  and  _378
REMARK  159  A    between atoms: _377  and  _380
REMARK  160  A    between atoms: _380  and  _381
REMARK  161  A    between atoms: _386  and  _388
REMARK  162  A    between atoms: _388  and  _389
REMARK  163  A    between atoms: _388  and  _391
REMARK  164  A    between atoms: _391  and  _392
REMARK  165  A    between atoms: _395  and  _397
REMARK  166  A    between atoms: _397  and  _398
REMARK  167  A    between atoms: _397  and  _400
REMARK  168  A    between atoms: _400  and  _401
REMARK  169  A    between atoms: _403  and  _405
REMARK  170  A    between atoms: _405  and  _406
REMARK  171  A    between atoms: _405  and  _408
REMARK  172  A    between atoms: _408  and  _409
REMARK  173  A    between atoms: _409  and  _410
REMARK  174  A    between atoms: _410  and  _411
REMARK  175  A    between atoms: _411  and  _412
REMARK  176  A    between atoms: _416  and  _418
REMARK  177  A    between atoms: _418  and  _419
REMARK  178  A    between atoms: _418  and  _421
REMARK  179  A    between atoms: _421  and  _422
REMARK  180  A    between atoms: _425  and  _427
REMARK  181  A    between atoms: _427  and  _428
REMARK  182  A    between atoms: _427  and  _430
REMARK  183  A    between atoms: _430  and  _431
REMARK  184  A    between atoms: _431  and  _432
REMARK  185  A    between atoms: _435  and  _437
REMARK  186  A    between atoms: _437  and  _438
REMARK  187  A    between atoms: _441  and  _443
REMARK  188  A    between atoms: _443  and  _444
REMARK  189  A    between atoms: _443  and  _446
REMARK  190  A    between atoms: _449  and  _451
REMARK  191  A    between atoms: _451  and  _452
REMARK  192  A    between atoms: _451  and  _454
REMARK  193  A    between atoms: _454  and  _455
REMARK  194  A    between atoms: _457  and  _459
REMARK  195  A    between atoms: _459  and  _460
REMARK  196  A    between atoms: _462  and  _464
REMARK  197  A    between atoms: _464  and  _465
REMARK  198  A    between atoms: _464  and  _467
REMARK  199  A    between atoms: _467  and  _468
REMARK  200  A    between atoms: _473  and  _475
REMARK  201  A    between atoms: _475  and  _476
REMARK  202  A    between atoms: _475  and  _478
REMARK  203  A    between atoms: _478  and  _479
REMARK  204  A    between atoms: _484  and  _485
REMARK  205  A    between atoms: _487  and  _489
REMARK  206  A    between atoms: _489  and  _490
REMARK  207  A    between atoms: _489  and  _492
REMARK  208  A    between atoms: _494  and  _496
REMARK  209  A    between atoms: _496  and  _497
REMARK  210  A    between atoms: _496  and  _499
REMARK  211  A    between atoms: _499  and  _500
REMARK  212  A    between atoms: _503  and  _505
REMARK  213  A    between atoms: _505  and  _506
REMARK  214  A    between atoms: _505  and  _508
REMARK  215  A    between atoms: _508  and  _509
REMARK  216  A    between atoms: _512  and  _514
REMARK  217  A    between atoms: _514  and  _515
REMARK  218  A    between atoms: _514  and  _517
REMARK  219  A    between atoms: _517  and  _518
REMARK  220  A    between atoms: _518  and  _519
REMARK  221  A    between atoms: _519  and  _520
REMARK  222  A    between atoms: _520  and  _521
REMARK  223  A    between atoms: _525  and  _527
REMARK  224  A    between atoms: _527  and  _528
REMARK  225  A    between atoms: _527  and  _530
REMARK  226  A    between atoms: _530  and  _531
REMARK  227  A    between atoms: _531  and  _532
REMARK  228  A    between atoms: _532  and  _533
REMARK  229  A    between atoms: _533  and  _534
REMARK  230  A    between atoms: _538  and  _540
REMARK  231  A    between atoms: _540  and  _541
REMARK  232  A    between atoms: _540  and  _543
REMARK  233  A    between atoms: _543  and  _544
REMARK  234  A    between atoms: _544  and  _545
REMARK  235  A    between atoms: _545  and  _546
REMARK  236  A    between atoms: _555  and  _557
REMARK  237  A    between atoms: _557  and  _558
REMARK  238  A    between atoms: _557  and  _560
REMARK  239  A    between atoms: _560  and  _561
REMARK  240  A    between atoms: _564  and  _566
REMARK  241  A    between atoms: _566  and  _567
REMARK  242  A    between atoms: _570  and  _572
REMARK  243  A    between atoms: _572  and  _573
REMARK  244  A    between atoms: _572  and  _575
REMARK  245  A    between atoms: _575  and  _576
REMARK  246  A    between atoms: _576  and  _577
REMARK                            x       y       z     vdW  Elec       q    Type
REMARK                         _______ _______ _______ _____ _____    ______ ____
ROOT
ATOM      1  O   HOH     1      42.788  -4.410 -15.756  0.00  0.00    +0.000 OA
ENDROOT
TORSDOF 0
REMARK  Name = ../refined-set-2016/3cct/3cct_pocket.pdb
REMARK  246 active torsions:
REMARK  status: ('A' for Active; 'I' for Inactive)
REMARK    1  A    between atoms: _1  and  _3
REMARK    2  A    between atoms: _3  and  _4
REMARK    3  A    between atoms: _3  and  _6
REMARK    4  A    between atoms: _6  and  _7
REMARK    5  A    between atoms: _10  and  _12
REMARK    6  A    between atoms: _12  and  _13
REMARK    7  A    between atoms: _12  and  _15
REMARK    8  A    between atoms: _15  and  _16
REMARK    9  A    between atoms: _16  and  _17
REMARK   10  A    between atoms: _20  and  _22
REMARK   11  A    between atoms: _22  and  _23
REMARK   12  A    between atoms: _25  and  _27
REMARK   13  A    between atoms: _27  and  _28
REMARK   14  A    between atoms: _27  and  _30
REMARK   15  A    between atoms: _32  and  _34
REMARK   16  A    between atoms: _34  and  _35
REMARK   17  A    between atoms: _34  and  _37
REMARK   18  A    between atoms: _37  and  _38
REMARK   19  A    between atoms: _41  and  _43
REMARK   20  A    between atoms: _43  and  _44
REMARK   21  A    between atoms: _43  and  _46
REMARK   22  A    between atoms: _49  and  _51
REMARK   23  A    between atoms: _51  and  _52
REMARK   24  A    between atoms: _55  and  _57
REMARK   25  A    between atoms: _57  and  _58
REMARK   26  A    between atoms: _57  and  _60
REMARK   27  A    between atoms: _60  and  _61
REMARK   28  A    between atoms: _63  and  _65
REMARK   29  A    between atoms: _65  and  _66
REMARK   30  A    between atoms: _65  and  _68
REMARK   31  A    between atoms: _68  and  _69
REMARK   32  A    between atoms: _72  and  _74
REMARK   33  A    between atoms: _74  and  _75
REMARK   34  A    between atoms: _74  and  _77
REMARK   35  A    between atoms: _77  and  _78
REMARK   36  A    between atoms: _83  and  _85
REMARK   37  A    between atoms: _85  and  _86
REMARK   38  A    between atoms: _85  and  _88
REMARK   39  A    between atoms: _88  and  _89
REMARK   40  A    between atoms: _89  and  _90
REMARK   41  A    between atoms: _90  and  _91
REMARK   42  A    between atoms: _100  and  _102
REMARK   43  A    between atoms: _102  and  _103
REMARK   44  A    between atoms: _105  and  _107
REMARK   45  A    between atoms: _107  and  _108
REMARK   46  A    between atoms: _107  and  _110
REMARK   47  A    between atoms: _113  and  _115
REMARK   48  A    between atoms: _115  and  _116
REMARK   49  A    between atoms: _115  and  _118
REMARK   50  A    between atoms: _118  and  _119
REMARK   51  A    between atoms: _122  and  _124
REMARK   52  A    between atoms: _124  and  _125
REMARK   53  A    between atoms: _124  and  _127
REMARK   54  A    between atoms: _127  and  _128
REMARK   55  A    between atoms: _128  and  _129
REMARK   56  A    between atoms: _129  and  _130
REMARK   57  A    between atoms: _130  and  _131
REMARK   58  A    between atoms: _135  and  _137
REMARK   59  A    between atoms: _137  and  _138
REMARK   60  A    between atoms: _137  and  _140
REMARK   61  A    between atoms: _140  and  _141
REMARK   62  A    between atoms: _141  and  _142
REMARK   63  A    between atoms: _142  and  _143
REMARK   64  A    between atoms: _143  and  _144
REMARK   65  A    between atoms: _148  and  _150
REMARK   66  A    between atoms: _150  and  _151
REMARK   67  A    between atoms: _150  and  _153
REMARK   68  A    between atoms: _153  and  _154
REMARK   69  A    between atoms: _159  and  _161
REMARK   70  A    between atoms: _161  and  _162
REMARK   71  A    between atoms: _161  and  _164
REMARK   72  A    between atoms: _164  and  _165
REMARK   73  A    between atoms: _170  and  _172
REMARK   74  A    between atoms: _172  and  _173
REMARK   75  A    between atoms: _176  and  _178
REMARK   76  A    between atoms: _178  and  _179
REMARK   77  A    between atoms: _178  and  _181
REMARK   78  A    between atoms: _181  and  _182
REMARK   79  A    between atoms: _187  and  _189
REMARK   80  A    between atoms: _189  and  _190
REMARK   81  A    between atoms: _193  and  _195
REMARK   82  A    between atoms: _195  and  _196
REMARK   83  A    between atoms: _199  and  _201
REMARK   84  A    between atoms: _201  and  _202
REMARK   85  A    between atoms: _201  and  _204
REMARK   86  A    between atoms: _204  and  _205
REMARK   87  A    between atoms: _210  and  _212
REMARK   88  A    between atoms: _212  and  _213
REMARK   89  A    between atoms: _212  and  _215
REMARK   90  A    between atoms: _215  and  _216
REMARK   91  A    between atoms: _219  and  _221
REMARK   92  A    between atoms: _221  and  _222
REMARK   93  A    between atoms: _224  and  _226
REMARK   94  A    between atoms: _226  and  _227
REMARK   95  A    between atoms: _226  and  _229
REMARK   96  A    between atoms: _229  and  _230
REMARK   97  A    between atoms: _230  and  _231
REMARK   98  A    between atoms: _234  and  _236
REMARK   99  A    between atoms: _236  and  _237
REMARK  100  A    between atoms: _236  and  _239
REMARK  101  A    between atoms: _239  and  _240
REMARK  102  A    between atoms: _242  and  _244
REMARK  103  A    between atoms: _244  and  _245
REMARK  104  A    between atoms: _244  and  _247
REMARK  105  A    between atoms: _247  and  _248
REMARK  106  A    between atoms: _251  and  _253
REMARK  107  A    between atoms: _253  and  _254
REMARK  108  A    between atoms: _253  and  _256
REMARK  109  A    between atoms: _256  and  _257
REMARK  110  A    between atoms: _257  and  _258
REMARK  111  A    between atoms: _260  and  _262
REMARK  112  A    between atoms: _262  and  _263
REMARK  113  A    between atoms: _266  and  _268
REMARK  114  A    between atoms: _268  and  _269
REMARK  115  A    between atoms: _272  and  _274
REMARK  116  A    between atoms: _274  and  _275
REMARK  117  A    between atoms: _274  and  _277
REMARK  118  A    between atoms: _277  and  _278
REMARK  119  A    between atoms: _281  and  _283
REMARK  120  A    between atoms: _283  and  _284
REMARK  121  A    between atoms: _287  and  _289
REMARK  122  A    between atoms: _289  and  _290
REMARK  123  A    between atoms: _293  and  _295
REMARK  124  A    between atoms: _295  and  _296
REMARK  125  A    between atoms: _298  and  _300
REMARK  126  A    between atoms: _300  and  _301
REMARK  127  A    between atoms: _300  and  _303
REMARK  128  A    between atoms: _303  and  _304
REMARK  129  A    between atoms: _309  and  _311
REMARK  130  A    between atoms: _311  and  _312
REMARK  131  A    between atoms: _311  and  _314
REMARK  132  A    between atoms: _314  and  _315
REMARK  133  A    between atoms: _315  and  _316
REMARK  134  A    between atoms: _319  and  _321
REMARK  135  A    between atoms: _321  and  _322
REMARK  136  A    between atoms: _321  and  _324
REMARK  137  A    between atoms: _324  and  _325
REMARK  138  A    between atoms: _328  and  _330
REMARK  139  A    between atoms: _330  and  _331
REMARK  140  A    between atoms: _330  and  _333
REMARK  141  A    between atoms: _333  and  _334
REMARK  142  A    between atoms: _334  and  _335
REMARK  143  A    between atoms: _335  and  _336
REMARK  144  A    between atoms: _345  and  _347
REMARK  145  A    between atoms: _347  and  _348
REMARK  146  A    between atoms: _351  and  _352
REMARK  147  A    between atoms: _357  and  _359
REMARK  148  A    between atoms: _359  and  _360
REMARK  149  A    between atoms: _359  and  _362
REMARK  150  A    between atoms: _362  and  _363
REMARK  151  A    between atoms: _363  and  _364
REMARK  152  A    between atoms: _366  and  _368
REMARK  153  A    between atoms: _368  and  _369
REMARK  154  A    between atoms: _368  and  _371
REMARK  155  A    between atoms: _371  and  _372
REMARK  156  A    between atoms: _372  and  _373
REMARK  157  A    between atoms: _375  and  _377
REMARK  158  A    between atoms: _377  and  _378
REMARK  159  A    between atoms: _377  and  _380
REMARK  160  A    between atoms: _380  and  _381
REMARK  161  A    between atoms: _386  and  _388
REMARK  162  A    between atoms: _388  and  _389
REMARK  163  A    between atoms: _388  and  _391
REMARK  164  A    between atoms: _391  and  _392
REMARK  165  A    between atoms: _395  and  _397
REMARK  166  A    between atoms: _397  and  _398
REMARK  167  A    between atoms: _397  and  _400
REMARK  168  A    between atoms: _400  and  _401
REMARK  169  A    between atoms: _403  and  _405
REMARK  170  A    between atoms: _405  and  _406
REMARK  171  A    between atoms: _405  and  _408
REMARK  172  A    between atoms: _408  and  _409
REMARK  173  A    between atoms: _409  and  _410
REMARK  174  A    between atoms: _410  and  _411
REMARK  175  A    between atoms: _411  and  _412
REMARK  176  A    between atoms: _416  and  _418
REMARK  177  A    between atoms: _418  and  _419
REMARK  178  A    between atoms: _418  and  _421
REMARK  179  A    between atoms: _421  and  _422
REMARK  180  A    between atoms: _425  and  _427
REMARK  181  A    between atoms: _427  and  _428
REMARK  182  A    between atoms: _427  and  _430
REMARK  183  A    between atoms: _430  and  _431
REMARK  184  A    between atoms: _431  and  _432
REMARK  185  A    between atoms: _435  and  _437
REMARK  186  A    between atoms: _437  and  _438
REMARK  187  A    between atoms: _441  and  _443
REMARK  188  A    between atoms: _443  and  _444
REMARK  189  A    between atoms: _443  and  _446
REMARK  190  A    between atoms: _449  and  _451
REMARK  191  A    between atoms: _451  and  _452
REMARK  192  A    between atoms: _451  and  _454
REMARK  193  A    between atoms: _454  and  _455
REMARK  194  A    between atoms: _457  and  _459
REMARK  195  A    between atoms: _459  and  _460
REMARK  196  A    between atoms: _462  and  _464
REMARK  197  A    between atoms: _464  and  _465
REMARK  198  A    between atoms: _464  and  _467
REMARK  199  A    between atoms: _467  and  _468
REMARK  200  A    between atoms: _473  and  _475
REMARK  201  A    between atoms: _475  and  _476
REMARK  202  A    between atoms: _475  and  _478
REMARK  203  A    between atoms: _478  and  _479
REMARK  204  A    between atoms: _484  and  _485
REMARK  205  A    between atoms: _487  and  _489
REMARK  206  A    between atoms: _489  and  _490
REMARK  207  A    between atoms: _489  and  _492
REMARK  208  A    between atoms: _494  and  _496
REMARK  209  A    between atoms: _496  and  _497
REMARK  210  A    between atoms: _496  and  _499
REMARK  211  A    between atoms: _499  and  _500
REMARK  212  A    between atoms: _503  and  _505
REMARK  213  A    between atoms: _505  and  _506
REMARK  214  A    between atoms: _505  and  _508
REMARK  215  A    between atoms: _508  and  _509
REMARK  216  A    between atoms: _512  and  _514
REMARK  217  A    between atoms: _514  and  _515
REMARK  218  A    between atoms: _514  and  _517
REMARK  219  A    between atoms: _517  and  _518
REMARK  220  A    between atoms: _518  and  _519
REMARK  221  A    between atoms: _519  and  _520
REMARK  222  A    between atoms: _520  and  _521
REMARK  223  A    between atoms: _525  and  _527
REMARK  224  A    between atoms: _527  and  _528
REMARK  225  A    between atoms: _527  and  _530
REMARK  226  A    between atoms: _530  and  _531
REMARK  227  A    between atoms: _531  and  _532
REMARK  228  A    between atoms: _532  and  _533
REMARK  229  A    between atoms: _533  and  _534
REMARK  230  A    between atoms: _538  and  _540
REMARK  231  A    between atoms: _540  and  _541
REMARK  232  A    between atoms: _540  and  _543
REMARK  233  A    between atoms: _543  and  _544
REMARK  234  A    between atoms: _544  and  _545
REMARK  235  A    between atoms: _545  and  _546
REMARK  236  A    between atoms: _555  and  _557
REMARK  237  A    between atoms: _557  and  _558
REMARK  238  A    between atoms: _557  and  _560
REMARK  239  A    between atoms: _560  and  _561
REMARK  240  A    between atoms: _564  and  _566
REMARK  241  A    between atoms: _566  and  _567
REMARK  242  A    between atoms: _570  and  _572
REMARK  243  A    between atoms: _572  and  _573
REMARK  244  A    between atoms: _572  and  _575
REMARK  245  A    between atoms: _575  and  _576
REMARK  246  A    between atoms: _576  and  _577
REMARK                            x       y       z     vdW  Elec       q    Type
REMARK                         _______ _______ _______ _____ _____    ______ ____
ROOT
ATOM      1  O   HOH     1      40.810  -3.130 -17.702  0.00  0.00    +0.000 OA
ENDROOT
TORSDOF 0
REMARK  Name = ../refined-set-2016/3cct/3cct_pocket.pdb
REMARK  246 active torsions:
REMARK  status: ('A' for Active; 'I' for Inactive)
REMARK    1  A    between atoms: _1  and  _3
REMARK    2  A    between atoms: _3  and  _4
REMARK    3  A    between atoms: _3  and  _6
REMARK    4  A    between atoms: _6  and  _7
REMARK    5  A    between atoms: _10  and  _12
REMARK    6  A    between atoms: _12  and  _13
REMARK    7  A    between atoms: _12  and  _15
REMARK    8  A    between atoms: _15  and  _16
REMARK    9  A    between atoms: _16  and  _17
REMARK   10  A    between atoms: _20  and  _22
REMARK   11  A    between atoms: _22  and  _23
REMARK   12  A    between atoms: _25  and  _27
REMARK   13  A    between atoms: _27  and  _28
REMARK   14  A    between atoms: _27  and  _30
REMARK   15  A    between atoms: _32  and  _34
REMARK   16  A    between atoms: _34  and  _35
REMARK   17  A    between atoms: _34  and  _37
REMARK   18  A    between atoms: _37  and  _38
REMARK   19  A    between atoms: _41  and  _43
REMARK   20  A    between atoms: _43  and  _44
REMARK   21  A    between atoms: _43  and  _46
REMARK   22  A    between atoms: _49  and  _51
REMARK   23  A    between atoms: _51  and  _52
REMARK   24  A    between atoms: _55  and  _57
REMARK   25  A    between atoms: _57  and  _58
REMARK   26  A    between atoms: _57  and  _60
REMARK   27  A    between atoms: _60  and  _61
REMARK   28  A    between atoms: _63  and  _65
REMARK   29  A    between atoms: _65  and  _66
REMARK   30  A    between atoms: _65  and  _68
REMARK   31  A    between atoms: _68  and  _69
REMARK   32  A    between atoms: _72  and  _74
REMARK   33  A    between atoms: _74  and  _75
REMARK   34  A    between atoms: _74  and  _77
REMARK   35  A    between atoms: _77  and  _78
REMARK   36  A    between atoms: _83  and  _85
REMARK   37  A    between atoms: _85  and  _86
REMARK   38  A    between atoms: _85  and  _88
REMARK   39  A    between atoms: _88  and  _89
REMARK   40  A    between atoms: _89  and  _90
REMARK   41  A    between atoms: _90  and  _91
REMARK   42  A    between atoms: _100  and  _102
REMARK   43  A    between atoms: _102  and  _103
REMARK   44  A    between atoms: _105  and  _107
REMARK   45  A    between atoms: _107  and  _108
REMARK   46  A    between atoms: _107  and  _110
REMARK   47  A    between atoms: _113  and  _115
REMARK   48  A    between atoms: _115  and  _116
REMARK   49  A    between atoms: _115  and  _118
REMARK   50  A    between atoms: _118  and  _119
REMARK   51  A    between atoms: _122  and  _124
REMARK   52  A    between atoms: _124  and  _125
REMARK   53  A    between atoms: _124  and  _127
REMARK   54  A    between atoms: _127  and  _128
REMARK   55  A    between atoms: _128  and  _129
REMARK   56  A    between atoms: _129  and  _130
REMARK   57  A    between atoms: _130  and  _131
REMARK   58  A    between atoms: _135  and  _137
REMARK   59  A    between atoms: _137  and  _138
REMARK   60  A    between atoms: _137  and  _140
REMARK   61  A    between atoms: _140  and  _141
REMARK   62  A    between atoms: _141  and  _142
REMARK   63  A    between atoms: _142  and  _143
REMARK   64  A    between atoms: _143  and  _144
REMARK   65  A    between atoms: _148  and  _150
REMARK   66  A    between atoms: _150  and  _151
REMARK   67  A    between atoms: _150  and  _153
REMARK   68  A    between atoms: _153  and  _154
REMARK   69  A    between atoms: _159  and  _161
REMARK   70  A    between atoms: _161  and  _162
REMARK   71  A    between atoms: _161  and  _164
REMARK   72  A    between atoms: _164  and  _165
REMARK   73  A    between atoms: _170  and  _172
REMARK   74  A    between atoms: _172  and  _173
REMARK   75  A    between atoms: _176  and  _178
REMARK   76  A    between atoms: _178  and  _179
REMARK   77  A    between atoms: _178  and  _181
REMARK   78  A    between atoms: _181  and  _182
REMARK   79  A    between atoms: _187  and  _189
REMARK   80  A    between atoms: _189  and  _190
REMARK   81  A    between atoms: _193  and  _195
REMARK   82  A    between atoms: _195  and  _196
REMARK   83  A    between atoms: _199  and  _201
REMARK   84  A    between atoms: _201  and  _202
REMARK   85  A    between atoms: _201  and  _204
REMARK   86  A    between atoms: _204  and  _205
REMARK   87  A    between atoms: _210  and  _212
REMARK   88  A    between atoms: _212  and  _213
REMARK   89  A    between atoms: _212  and  _215
REMARK   90  A    between atoms: _215  and  _216
REMARK   91  A    between atoms: _219  and  _221
REMARK   92  A    between atoms: _221  and  _222
REMARK   93  A    between atoms: _224  and  _226
REMARK   94  A    between atoms: _226  and  _227
REMARK   95  A    between atoms: _226  and  _229
REMARK   96  A    between atoms: _229  and  _230
REMARK   97  A    between atoms: _230  and  _231
REMARK   98  A    between atoms: _234  and  _236
REMARK   99  A    between atoms: _236  and  _237
REMARK  100  A    between atoms: _236  and  _239
REMARK  101  A    between atoms: _239  and  _240
REMARK  102  A    between atoms: _242  and  _244
REMARK  103  A    between atoms: _244  and  _245
REMARK  104  A    between atoms: _244  and  _247
REMARK  105  A    between atoms: _247  and  _248
REMARK  106  A    between atoms: _251  and  _253
REMARK  107  A    between atoms: _253  and  _254
REMARK  108  A    between atoms: _253  and  _256
REMARK  109  A    between atoms: _256  and  _257
REMARK  110  A    between atoms: _257  and  _258
REMARK  111  A    between atoms: _260  and  _262
REMARK  112  A    between atoms: _262  and  _263
REMARK  113  A    between atoms: _266  and  _268
REMARK  114  A    between atoms: _268  and  _269
REMARK  115  A    between atoms: _272  and  _274
REMARK  116  A    between atoms: _274  and  _275
REMARK  117  A    between atoms: _274  and  _277
REMARK  118  A    between atoms: _277  and  _278
REMARK  119  A    between atoms: _281  and  _283
REMARK  120  A    between atoms: _283  and  _284
REMARK  121  A    between atoms: _287  and  _289
REMARK  122  A    between atoms: _289  and  _290
REMARK  123  A    between atoms: _293  and  _295
REMARK  124  A    between atoms: _295  and  _296
REMARK  125  A    between atoms: _298  and  _300
REMARK  126  A    between atoms: _300  and  _301
REMARK  127  A    between atoms: _300  and  _303
REMARK  128  A    between atoms: _303  and  _304
REMARK  129  A    between atoms: _309  and  _311
REMARK  130  A    between atoms: _311  and  _312
REMARK  131  A    between atoms: _311  and  _314
REMARK  132  A    between atoms: _314  and  _315
REMARK  133  A    between atoms: _315  and  _316
REMARK  134  A    between atoms: _319  and  _321
REMARK  135  A    between atoms: _321  and  _322
REMARK  136  A    between atoms: _321  and  _324
REMARK  137  A    between atoms: _324  and  _325
REMARK  138  A    between atoms: _328  and  _330
REMARK  139  A    between atoms: _330  and  _331
REMARK  140  A    between atoms: _330  and  _333
REMARK  141  A    between atoms: _333  and  _334
REMARK  142  A    between atoms: _334  and  _335
REMARK  143  A    between atoms: _335  and  _336
REMARK  144  A    between atoms: _345  and  _347
REMARK  145  A    between atoms: _347  and  _348
REMARK  146  A    between atoms: _351  and  _352
REMARK  147  A    between atoms: _357  and  _359
REMARK  148  A    between atoms: _359  and  _360
REMARK  149  A    between atoms: _359  and  _362
REMARK  150  A    between atoms: _362  and  _363
REMARK  151  A    between atoms: _363  and  _364
REMARK  152  A    between atoms: _366  and  _368
REMARK  153  A    between atoms: _368  and  _369
REMARK  154  A    between atoms: _368  and  _371
REMARK  155  A    between atoms: _371  and  _372
REMARK  156  A    between atoms: _372  and  _373
REMARK  157  A    between atoms: _375  and  _377
REMARK  158  A    between atoms: _377  and  _378
REMARK  159  A    between atoms: _377  and  _380
REMARK  160  A    between atoms: _380  and  _381
REMARK  161  A    between atoms: _386  and  _388
REMARK  162  A    between atoms: _388  and  _389
REMARK  163  A    between atoms: _388  and  _391
REMARK  164  A    between atoms: _391  and  _392
REMARK  165  A    between atoms: _395  and  _397
REMARK  166  A    between atoms: _397  and  _398
REMARK  167  A    between atoms: _397  and  _400
REMARK  168  A    between atoms: _400  and  _401
REMARK  169  A    between atoms: _403  and  _405
REMARK  170  A    between atoms: _405  and  _406
REMARK  171  A    between atoms: _405  and  _408
REMARK  172  A    between atoms: _408  and  _409
REMARK  173  A    between atoms: _409  and  _410
REMARK  174  A    between atoms: _410  and  _411
REMARK  175  A    between atoms: _411  and  _412
REMARK  176  A    between atoms: _416  and  _418
REMARK  177  A    between atoms: _418  and  _419
REMARK  178  A    between atoms: _418  and  _421
REMARK  179  A    between atoms: _421  and  _422
REMARK  180  A    between atoms: _425  and  _427
REMARK  181  A    between atoms: _427  and  _428
REMARK  182  A    between atoms: _427  and  _430
REMARK  183  A    between atoms: _430  and  _431
REMARK  184  A    between atoms: _431  and  _432
REMARK  185  A    between atoms: _435  and  _437
REMARK  186  A    between atoms: _437  and  _438
REMARK  187  A    between atoms: _441  and  _443
REMARK  188  A    between atoms: _443  and  _444
REMARK  189  A    between atoms: _443  and  _446
REMARK  190  A    between atoms: _449  and  _451
REMARK  191  A    between atoms: _451  and  _452
REMARK  192  A    between atoms: _451  and  _454
REMARK  193  A    between atoms: _454  and  _455
REMARK  194  A    between atoms: _457  and  _459
REMARK  195  A    between atoms: _459  and  _460
REMARK  196  A    between atoms: _462  and  _464
REMARK  197  A    between atoms: _464  and  _465
REMARK  198  A    between atoms: _464  and  _467
REMARK  199  A    between atoms: _467  and  _468
REMARK  200  A    between atoms: _473  and  _475
REMARK  201  A    between atoms: _475  and  _476
REMARK  202  A    between atoms: _475  and  _478
REMARK  203  A    between atoms: _478  and  _479
REMARK  204  A    between atoms: _484  and  _485
REMARK  205  A    between atoms: _487  and  _489
REMARK  206  A    between atoms: _489  and  _490
REMARK  207  A    between atoms: _489  and  _492
REMARK  208  A    between atoms: _494  and  _496
REMARK  209  A    between atoms: _496  and  _497
REMARK  210  A    between atoms: _496  and  _499
REMARK  211  A    between atoms: _499  and  _500
REMARK  212  A    between atoms: _503  and  _505
REMARK  213  A    between atoms: _505  and  _506
REMARK  214  A    between atoms: _505  and  _508
REMARK  215  A    between atoms: _508  and  _509
REMARK  216  A    between atoms: _512  and  _514
REMARK  217  A    between atoms: _514  and  _515
REMARK  218  A    between atoms: _514  and  _517
REMARK  219  A    between atoms: _517  and  _518
REMARK  220  A    between atoms: _518  and  _519
REMARK  221  A    between atoms: _519  and  _520
REMARK  222  A    between atoms: _520  and  _521
REMARK  223  A    between atoms: _525  and  _527
REMARK  224  A    between atoms: _527  and  _528
REMARK  225  A    between atoms: _527  and  _530
REMARK  226  A    between atoms: _530  and  _531
REMARK  227  A    between atoms: _531  and  _532
REMARK  228  A    between atoms: _532  and  _533
REMARK  229  A    between atoms: _533  and  _534
REMARK  230  A    between atoms: _538  and  _540
REMARK  231  A    between atoms: _540  and  _541
REMARK  232  A    between atoms: _540  and  _543
REMARK  233  A    between atoms: _543  and  _544
REMARK  234  A    between atoms: _544  and  _545
REMARK  235  A    between atoms: _545  and  _546
REMARK  236  A    between atoms: _555  and  _557
REMARK  237  A    between atoms: _557  and  _558
REMARK  238  A    between atoms: _557  and  _560
REMARK  239  A    between atoms: _560  and  _561
REMARK  240  A    between atoms: _564  and  _566
REMARK  241  A    between atoms: _566  and  _567
REMARK  242  A    between atoms: _570  and  _572
REMARK  243  A    between atoms: _572  and  _573
REMARK  244  A    between atoms: _572  and  _575
REMARK  245  A    between atoms: _575  and  _576
REMARK  246  A    between atoms: _576  and  _577
REMARK                            x       y       z     vdW  Elec       q    Type
REMARK                         _______ _______ _______ _____ _____    ______ ____
ROOT
ATOM      1  O   HOH     1      32.775  -8.628   0.073  0.00  0.00    +0.000 OA
ENDROOT
TORSDOF 0
REMARK  Name = ../refined-set-2016/3cct/3cct_pocket.pdb
REMARK  246 active torsions:
REMARK  status: ('A' for Active; 'I' for Inactive)
REMARK    1  A    between atoms: _1  and  _3
REMARK    2  A    between atoms: _3  and  _4
REMARK    3  A    between atoms: _3  and  _6
REMARK    4  A    between atoms: _6  and  _7
REMARK    5  A    between atoms: _10  and  _12
REMARK    6  A    between atoms: _12  and  _13
REMARK    7  A    between atoms: _12  and  _15
REMARK    8  A    between atoms: _15  and  _16
REMARK    9  A    between atoms: _16  and  _17
REMARK   10  A    between atoms: _20  and  _22
REMARK   11  A    between atoms: _22  and  _23
REMARK   12  A    between atoms: _25  and  _27
REMARK   13  A    between atoms: _27  and  _28
REMARK   14  A    between atoms: _27  and  _30
REMARK   15  A    between atoms: _32  and  _34
REMARK   16  A    between atoms: _34  and  _35
REMARK   17  A    between atoms: _34  and  _37
REMARK   18  A    between atoms: _37  and  _38
REMARK   19  A    between atoms: _41  and  _43
REMARK   20  A    between atoms: _43  and  _44
REMARK   21  A    between atoms: _43  and  _46
REMARK   22  A    between atoms: _49  and  _51
REMARK   23  A    between atoms: _51  and  _52
REMARK   24  A    between atoms: _55  and  _57
REMARK   25  A    between atoms: _57  and  _58
REMARK   26  A    between atoms: _57  and  _60
REMARK   27  A    between atoms: _60  and  _61
REMARK   28  A    between atoms: _63  and  _65
REMARK   29  A    between atoms: _65  and  _66
REMARK   30  A    between atoms: _65  and  _68
REMARK   31  A    between atoms: _68  and  _69
REMARK   32  A    between atoms: _72  and  _74
REMARK   33  A    between atoms: _74  and  _75
REMARK   34  A    between atoms: _74  and  _77
REMARK   35  A    between atoms: _77  and  _78
REMARK   36  A    between atoms: _83  and  _85
REMARK   37  A    between atoms: _85  and  _86
REMARK   38  A    between atoms: _85  and  _88
REMARK   39  A    between atoms: _88  and  _89
REMARK   40  A    between atoms: _89  and  _90
REMARK   41  A    between atoms: _90  and  _91
REMARK   42  A    between atoms: _100  and  _102
REMARK   43  A    between atoms: _102  and  _103
REMARK   44  A    between atoms: _105  and  _107
REMARK   45  A    between atoms: _107  and  _108
REMARK   46  A    between atoms: _107  and  _110
REMARK   47  A    between atoms: _113  and  _115
REMARK   48  A    between atoms: _115  and  _116
REMARK   49  A    between atoms: _115  and  _118
REMARK   50  A    between atoms: _118  and  _119
REMARK   51  A    between atoms: _122  and  _124
REMARK   52  A    between atoms: _124  and  _125
REMARK   53  A    between atoms: _124  and  _127
REMARK   54  A    between atoms: _127  and  _128
REMARK   55  A    between atoms: _128  and  _129
REMARK   56  A    between atoms: _129  and  _130
REMARK   57  A    between atoms: _130  and  _131
REMARK   58  A    between atoms: _135  and  _137
REMARK   59  A    between atoms: _137  and  _138
REMARK   60  A    between atoms: _137  and  _140
REMARK   61  A    between atoms: _140  and  _141
REMARK   62  A    between atoms: _141  and  _142
REMARK   63  A    between atoms: _142  and  _143
REMARK   64  A    between atoms: _143  and  _144
REMARK   65  A    between atoms: _148  and  _150
REMARK   66  A    between atoms: _150  and  _151
REMARK   67  A    between atoms: _150  and  _153
REMARK   68  A    between atoms: _153  and  _154
REMARK   69  A    between atoms: _159  and  _161
REMARK   70  A    between atoms: _161  and  _162
REMARK   71  A    between atoms: _161  and  _164
REMARK   72  A    between atoms: _164  and  _165
REMARK   73  A    between atoms: _170  and  _172
REMARK   74  A    between atoms: _172  and  _173
REMARK   75  A    between atoms: _176  and  _178
REMARK   76  A    between atoms: _178  and  _179
REMARK   77  A    between atoms: _178  and  _181
REMARK   78  A    between atoms: _181  and  _182
REMARK   79  A    between atoms: _187  and  _189
REMARK   80  A    between atoms: _189  and  _190
REMARK   81  A    between atoms: _193  and  _195
REMARK   82  A    between atoms: _195  and  _196
REMARK   83  A    between atoms: _199  and  _201
REMARK   84  A    between atoms: _201  and  _202
REMARK   85  A    between atoms: _201  and  _204
REMARK   86  A    between atoms: _204  and  _205
REMARK   87  A    between atoms: _210  and  _212
REMARK   88  A    between atoms: _212  and  _213
REMARK   89  A    between atoms: _212  and  _215
REMARK   90  A    between atoms: _215  and  _216
REMARK   91  A    between atoms: _219  and  _221
REMARK   92  A    between atoms: _221  and  _222
REMARK   93  A    between atoms: _224  and  _226
REMARK   94  A    between atoms: _226  and  _227
REMARK   95  A    between atoms: _226  and  _229
REMARK   96  A    between atoms: _229  and  _230
REMARK   97  A    between atoms: _230  and  _231
REMARK   98  A    between atoms: _234  and  _236
REMARK   99  A    between atoms: _236  and  _237
REMARK  100  A    between atoms: _236  and  _239
REMARK  101  A    between atoms: _239  and  _240
REMARK  102  A    between atoms: _242  and  _244
REMARK  103  A    between atoms: _244  and  _245
REMARK  104  A    between atoms: _244  and  _247
REMARK  105  A    between atoms: _247  and  _248
REMARK  106  A    between atoms: _251  and  _253
REMARK  107  A    between atoms: _253  and  _254
REMARK  108  A    between atoms: _253  and  _256
REMARK  109  A    between atoms: _256  and  _257
REMARK  110  A    between atoms: _257  and  _258
REMARK  111  A    between atoms: _260  and  _262
REMARK  112  A    between atoms: _262  and  _263
REMARK  113  A    between atoms: _266  and  _268
REMARK  114  A    between atoms: _268  and  _269
REMARK  115  A    between atoms: _272  and  _274
REMARK  116  A    between atoms: _274  and  _275
REMARK  117  A    between atoms: _274  and  _277
REMARK  118  A    between atoms: _277  and  _278
REMARK  119  A    between atoms: _281  and  _283
REMARK  120  A    between atoms: _283  and  _284
REMARK  121  A    between atoms: _287  and  _289
REMARK  122  A    between atoms: _289  and  _290
REMARK  123  A    between atoms: _293  and  _295
REMARK  124  A    between atoms: _295  and  _296
REMARK  125  A    between atoms: _298  and  _300
REMARK  126  A    between atoms: _300  and  _301
REMARK  127  A    between atoms: _300  and  _303
REMARK  128  A    between atoms: _303  and  _304
REMARK  129  A    between atoms: _309  and  _311
REMARK  130  A    between atoms: _311  and  _312
REMARK  131  A    between atoms: _311  and  _314
REMARK  132  A    between atoms: _314  and  _315
REMARK  133  A    between atoms: _315  and  _316
REMARK  134  A    between atoms: _319  and  _321
REMARK  135  A    between atoms: _321  and  _322
REMARK  136  A    between atoms: _321  and  _324
REMARK  137  A    between atoms: _324  and  _325
REMARK  138  A    between atoms: _328  and  _330
REMARK  139  A    between atoms: _330  and  _331
REMARK  140  A    between atoms: _330  and  _333
REMARK  141  A    between atoms: _333  and  _334
REMARK  142  A    between atoms: _334  and  _335
REMARK  143  A    between atoms: _335  and  _336
REMARK  144  A    between atoms: _345  and  _347
REMARK  145  A    between atoms: _347  and  _348
REMARK  146  A    between atoms: _351  and  _352
REMARK  147  A    between atoms: _357  and  _359
REMARK  148  A    between atoms: _359  and  _360
REMARK  149  A    between atoms: _359  and  _362
REMARK  150  A    between atoms: _362  and  _363
REMARK  151  A    between atoms: _363  and  _364
REMARK  152  A    between atoms: _366  and  _368
REMARK  153  A    between atoms: _368  and  _369
REMARK  154  A    between atoms: _368  and  _371
REMARK  155  A    between atoms: _371  and  _372
REMARK  156  A    between atoms: _372  and  _373
REMARK  157  A    between atoms: _375  and  _377
REMARK  158  A    between atoms: _377  and  _378
REMARK  159  A    between atoms: _377  and  _380
REMARK  160  A    between atoms: _380  and  _381
REMARK  161  A    between atoms: _386  and  _388
REMARK  162  A    between atoms: _388  and  _389
REMARK  163  A    between atoms: _388  and  _391
REMARK  164  A    between atoms: _391  and  _392
REMARK  165  A    between atoms: _395  and  _397
REMARK  166  A    between atoms: _397  and  _398
REMARK  167  A    between atoms: _397  and  _400
REMARK  168  A    between atoms: _400  and  _401
REMARK  169  A    between atoms: _403  and  _405
REMARK  170  A    between atoms: _405  and  _406
REMARK  171  A    between atoms: _405  and  _408
REMARK  172  A    between atoms: _408  and  _409
REMARK  173  A    between atoms: _409  and  _410
REMARK  174  A    between atoms: _410  and  _411
REMARK  175  A    between atoms: _411  and  _412
REMARK  176  A    between atoms: _416  and  _418
REMARK  177  A    between atoms: _418  and  _419
REMARK  178  A    between atoms: _418  and  _421
REMARK  179  A    between atoms: _421  and  _422
REMARK  180  A    between atoms: _425  and  _427
REMARK  181  A    between atoms: _427  and  _428
REMARK  182  A    between atoms: _427  and  _430
REMARK  183  A    between atoms: _430  and  _431
REMARK  184  A    between atoms: _431  and  _432
REMARK  185  A    between atoms: _435  and  _437
REMARK  186  A    between atoms: _437  and  _438
REMARK  187  A    between atoms: _441  and  _443
REMARK  188  A    between atoms: _443  and  _444
REMARK  189  A    between atoms: _443  and  _446
REMARK  190  A    between atoms: _449  and  _451
REMARK  191  A    between atoms: _451  and  _452
REMARK  192  A    between atoms: _451  and  _454
REMARK  193  A    between atoms: _454  and  _455
REMARK  194  A    between atoms: _457  and  _459
REMARK  195  A    between atoms: _459  and  _460
REMARK  196  A    between atoms: _462  and  _464
REMARK  197  A    between atoms: _464  and  _465
REMARK  198  A    between atoms: _464  and  _467
REMARK  199  A    between atoms: _467  and  _468
REMARK  200  A    between atoms: _473  and  _475
REMARK  201  A    between atoms: _475  and  _476
REMARK  202  A    between atoms: _475  and  _478
REMARK  203  A    between atoms: _478  and  _479
REMARK  204  A    between atoms: _484  and  _485
REMARK  205  A    between atoms: _487  and  _489
REMARK  206  A    between atoms: _489  and  _490
REMARK  207  A    between atoms: _489  and  _492
REMARK  208  A    between atoms: _494  and  _496
REMARK  209  A    between atoms: _496  and  _497
REMARK  210  A    between atoms: _496  and  _499
REMARK  211  A    between atoms: _499  and  _500
REMARK  212  A    between atoms: _503  and  _505
REMARK  213  A    between atoms: _505  and  _506
REMARK  214  A    between atoms: _505  and  _508
REMARK  215  A    between atoms: _508  and  _509
REMARK  216  A    between atoms: _512  and  _514
REMARK  217  A    between atoms: _514  and  _515
REMARK  218  A    between atoms: _514  and  _517
REMARK  219  A    between atoms: _517  and  _518
REMARK  220  A    between atoms: _518  and  _519
REMARK  221  A    between atoms: _519  and  _520
REMARK  222  A    between atoms: _520  and  _521
REMARK  223  A    between atoms: _525  and  _527
REMARK  224  A    between atoms: _527  and  _528
REMARK  225  A    between atoms: _527  and  _530
REMARK  226  A    between atoms: _530  and  _531
REMARK  227  A    between atoms: _531  and  _532
REMARK  228  A    between atoms: _532  and  _533
REMARK  229  A    between atoms: _533  and  _534
REMARK  230  A    between atoms: _538  and  _540
REMARK  231  A    between atoms: _540  and  _541
REMARK  232  A    between atoms: _540  and  _543
REMARK  233  A    between atoms: _543  and  _544
REMARK  234  A    between atoms: _544  and  _545
REMARK  235  A    between atoms: _545  and  _546
REMARK  236  A    between atoms: _555  and  _557
REMARK  237  A    between atoms: _557  and  _558
REMARK  238  A    between atoms: _557  and  _560
REMARK  239  A    between atoms: _560  and  _561
REMARK  240  A    between atoms: _564  and  _566
REMARK  241  A    between atoms: _566  and  _567
REMARK  242  A    between atoms: _570  and  _572
REMARK  243  A    between atoms: _572  and  _573
REMARK  244  A    between atoms: _572  and  _575
REMARK  245  A    between atoms: _575  and  _576
REMARK  246  A    between atoms: _576  and  _577
REMARK                            x       y       z     vdW  Elec       q    Type
REMARK                         _______ _______ _______ _____ _____    ______ ____
ROOT
ATOM      1  O   HOH     1      28.447 -14.100  -7.639  0.00  0.00    +0.000 OA
ENDROOT
TORSDOF 0
REMARK  Name = ../refined-set-2016/3cct/3cct_pocket.pdb
REMARK  246 active torsions:
REMARK  status: ('A' for Active; 'I' for Inactive)
REMARK    1  A    between atoms: _1  and  _3
REMARK    2  A    between atoms: _3  and  _4
REMARK    3  A    between atoms: _3  and  _6
REMARK    4  A    between atoms: _6  and  _7
REMARK    5  A    between atoms: _10  and  _12
REMARK    6  A    between atoms: _12  and  _13
REMARK    7  A    between atoms: _12  and  _15
REMARK    8  A    between atoms: _15  and  _16
REMARK    9  A    between atoms: _16  and  _17
REMARK   10  A    between atoms: _20  and  _22
REMARK   11  A    between atoms: _22  and  _23
REMARK   12  A    between atoms: _25  and  _27
REMARK   13  A    between atoms: _27  and  _28
REMARK   14  A    between atoms: _27  and  _30
REMARK   15  A    between atoms: _32  and  _34
REMARK   16  A    between atoms: _34  and  _35
REMARK   17  A    between atoms: _34  and  _37
REMARK   18  A    between atoms: _37  and  _38
REMARK   19  A    between atoms: _41  and  _43
REMARK   20  A    between atoms: _43  and  _44
REMARK   21  A    between atoms: _43  and  _46
REMARK   22  A    between atoms: _49  and  _51
REMARK   23  A    between atoms: _51  and  _52
REMARK   24  A    between atoms: _55  and  _57
REMARK   25  A    between atoms: _57  and  _58
REMARK   26  A    between atoms: _57  and  _60
REMARK   27  A    between atoms: _60  and  _61
REMARK   28  A    between atoms: _63  and  _65
REMARK   29  A    between atoms: _65  and  _66
REMARK   30  A    between atoms: _65  and  _68
REMARK   31  A    between atoms: _68  and  _69
REMARK   32  A    between atoms: _72  and  _74
REMARK   33  A    between atoms: _74  and  _75
REMARK   34  A    between atoms: _74  and  _77
REMARK   35  A    between atoms: _77  and  _78
REMARK   36  A    between atoms: _83  and  _85
REMARK   37  A    between atoms: _85  and  _86
REMARK   38  A    between atoms: _85  and  _88
REMARK   39  A    between atoms: _88  and  _89
REMARK   40  A    between atoms: _89  and  _90
REMARK   41  A    between atoms: _90  and  _91
REMARK   42  A    between atoms: _100  and  _102
REMARK   43  A    between atoms: _102  and  _103
REMARK   44  A    between atoms: _105  and  _107
REMARK   45  A    between atoms: _107  and  _108
REMARK   46  A    between atoms: _107  and  _110
REMARK   47  A    between atoms: _113  and  _115
REMARK   48  A    between atoms: _115  and  _116
REMARK   49  A    between atoms: _115  and  _118
REMARK   50  A    between atoms: _118  and  _119
REMARK   51  A    between atoms: _122  and  _124
REMARK   52  A    between atoms: _124  and  _125
REMARK   53  A    between atoms: _124  and  _127
REMARK   54  A    between atoms: _127  and  _128
REMARK   55  A    between atoms: _128  and  _129
REMARK   56  A    between atoms: _129  and  _130
REMARK   57  A    between atoms: _130  and  _131
REMARK   58  A    between atoms: _135  and  _137
REMARK   59  A    between atoms: _137  and  _138
REMARK   60  A    between atoms: _137  and  _140
REMARK   61  A    between atoms: _140  and  _141
REMARK   62  A    between atoms: _141  and  _142
REMARK   63  A    between atoms: _142  and  _143
REMARK   64  A    between atoms: _143  and  _144
REMARK   65  A    between atoms: _148  and  _150
REMARK   66  A    between atoms: _150  and  _151
REMARK   67  A    between atoms: _150  and  _153
REMARK   68  A    between atoms: _153  and  _154
REMARK   69  A    between atoms: _159  and  _161
REMARK   70  A    between atoms: _161  and  _162
REMARK   71  A    between atoms: _161  and  _164
REMARK   72  A    between atoms: _164  and  _165
REMARK   73  A    between atoms: _170  and  _172
REMARK   74  A    between atoms: _172  and  _173
REMARK   75  A    between atoms: _176  and  _178
REMARK   76  A    between atoms: _178  and  _179
REMARK   77  A    between atoms: _178  and  _181
REMARK   78  A    between atoms: _181  and  _182
REMARK   79  A    between atoms: _187  and  _189
REMARK   80  A    between atoms: _189  and  _190
REMARK   81  A    between atoms: _193  and  _195
REMARK   82  A    between atoms: _195  and  _196
REMARK   83  A    between atoms: _199  and  _201
REMARK   84  A    between atoms: _201  and  _202
REMARK   85  A    between atoms: _201  and  _204
REMARK   86  A    between atoms: _204  and  _205
REMARK   87  A    between atoms: _210  and  _212
REMARK   88  A    between atoms: _212  and  _213
REMARK   89  A    between atoms: _212  and  _215
REMARK   90  A    between atoms: _215  and  _216
REMARK   91  A    between atoms: _219  and  _221
REMARK   92  A    between atoms: _221  and  _222
REMARK   93  A    between atoms: _224  and  _226
REMARK   94  A    between atoms: _226  and  _227
REMARK   95  A    between atoms: _226  and  _229
REMARK   96  A    between atoms: _229  and  _230
REMARK   97  A    between atoms: _230  and  _231
REMARK   98  A    between atoms: _234  and  _236
REMARK   99  A    between atoms: _236  and  _237
REMARK  100  A    between atoms: _236  and  _239
REMARK  101  A    between atoms: _239  and  _240
REMARK  102  A    between atoms: _242  and  _244
REMARK  103  A    between atoms: _244  and  _245
REMARK  104  A    between atoms: _244  and  _247
REMARK  105  A    between atoms: _247  and  _248
REMARK  106  A    between atoms: _251  and  _253
REMARK  107  A    between atoms: _253  and  _254
REMARK  108  A    between atoms: _253  and  _256
REMARK  109  A    between atoms: _256  and  _257
REMARK  110  A    between atoms: _257  and  _258
REMARK  111  A    between atoms: _260  and  _262
REMARK  112  A    between atoms: _262  and  _263
REMARK  113  A    between atoms: _266  and  _268
REMARK  114  A    between atoms: _268  and  _269
REMARK  115  A    between atoms: _272  and  _274
REMARK  116  A    between atoms: _274  and  _275
REMARK  117  A    between atoms: _274  and  _277
REMARK  118  A    between atoms: _277  and  _278
REMARK  119  A    between atoms: _281  and  _283
REMARK  120  A    between atoms: _283  and  _284
REMARK  121  A    between atoms: _287  and  _289
REMARK  122  A    between atoms: _289  and  _290
REMARK  123  A    between atoms: _293  and  _295
REMARK  124  A    between atoms: _295  and  _296
REMARK  125  A    between atoms: _298  and  _300
REMARK  126  A    between atoms: _300  and  _301
REMARK  127  A    between atoms: _300  and  _303
REMARK  128  A    between atoms: _303  and  _304
REMARK  129  A    between atoms: _309  and  _311
REMARK  130  A    between atoms: _311  and  _312
REMARK  131  A    between atoms: _311  and  _314
REMARK  132  A    between atoms: _314  and  _315
REMARK  133  A    between atoms: _315  and  _316
REMARK  134  A    between atoms: _319  and  _321
REMARK  135  A    between atoms: _321  and  _322
REMARK  136  A    between atoms: _321  and  _324
REMARK  137  A    between atoms: _324  and  _325
REMARK  138  A    between atoms: _328  and  _330
REMARK  139  A    between atoms: _330  and  _331
REMARK  140  A    between atoms: _330  and  _333
REMARK  141  A    between atoms: _333  and  _334
REMARK  142  A    between atoms: _334  and  _335
REMARK  143  A    between atoms: _335  and  _336
REMARK  144  A    between atoms: _345  and  _347
REMARK  145  A    between atoms: _347  and  _348
REMARK  146  A    between atoms: _351  and  _352
REMARK  147  A    between atoms: _357  and  _359
REMARK  148  A    between atoms: _359  and  _360
REMARK  149  A    between atoms: _359  and  _362
REMARK  150  A    between atoms: _362  and  _363
REMARK  151  A    between atoms: _363  and  _364
REMARK  152  A    between atoms: _366  and  _368
REMARK  153  A    between atoms: _368  and  _369
REMARK  154  A    between atoms: _368  and  _371
REMARK  155  A    between atoms: _371  and  _372
REMARK  156  A    between atoms: _372  and  _373
REMARK  157  A    between atoms: _375  and  _377
REMARK  158  A    between atoms: _377  and  _378
REMARK  159  A    between atoms: _377  and  _380
REMARK  160  A    between atoms: _380  and  _381
REMARK  161  A    between atoms: _386  and  _388
REMARK  162  A    between atoms: _388  and  _389
REMARK  163  A    between atoms: _388  and  _391
REMARK  164  A    between atoms: _391  and  _392
REMARK  165  A    between atoms: _395  and  _397
REMARK  166  A    between atoms: _397  and  _398
REMARK  167  A    between atoms: _397  and  _400
REMARK  168  A    between atoms: _400  and  _401
REMARK  169  A    between atoms: _403  and  _405
REMARK  170  A    between atoms: _405  and  _406
REMARK  171  A    between atoms: _405  and  _408
REMARK  172  A    between atoms: _408  and  _409
REMARK  173  A    between atoms: _409  and  _410
REMARK  174  A    between atoms: _410  and  _411
REMARK  175  A    between atoms: _411  and  _412
REMARK  176  A    between atoms: _416  and  _418
REMARK  177  A    between atoms: _418  and  _419
REMARK  178  A    between atoms: _418  and  _421
REMARK  179  A    between atoms: _421  and  _422
REMARK  180  A    between atoms: _425  and  _427
REMARK  181  A    between atoms: _427  and  _428
REMARK  182  A    between atoms: _427  and  _430
REMARK  183  A    between atoms: _430  and  _431
REMARK  184  A    between atoms: _431  and  _432
REMARK  185  A    between atoms: _435  and  _437
REMARK  186  A    between atoms: _437  and  _438
REMARK  187  A    between atoms: _441  and  _443
REMARK  188  A    between atoms: _443  and  _444
REMARK  189  A    between atoms: _443  and  _446
REMARK  190  A    between atoms: _449  and  _451
REMARK  191  A    between atoms: _451  and  _452
REMARK  192  A    between atoms: _451  and  _454
REMARK  193  A    between atoms: _454  and  _455
REMARK  194  A    between atoms: _457  and  _459
REMARK  195  A    between atoms: _459  and  _460
REMARK  196  A    between atoms: _462  and  _464
REMARK  197  A    between atoms: _464  and  _465
REMARK  198  A    between atoms: _464  and  _467
REMARK  199  A    between atoms: _467  and  _468
REMARK  200  A    between atoms: _473  and  _475
REMARK  201  A    between atoms: _475  and  _476
REMARK  202  A    between atoms: _475  and  _478
REMARK  203  A    between atoms: _478  and  _479
REMARK  204  A    between atoms: _484  and  _485
REMARK  205  A    between atoms: _487  and  _489
REMARK  206  A    between atoms: _489  and  _490
REMARK  207  A    between atoms: _489  and  _492
REMARK  208  A    between atoms: _494  and  _496
REMARK  209  A    between atoms: _496  and  _497
REMARK  210  A    between atoms: _496  and  _499
REMARK  211  A    between atoms: _499  and  _500
REMARK  212  A    between atoms: _503  and  _505
REMARK  213  A    between atoms: _505  and  _506
REMARK  214  A    between atoms: _505  and  _508
REMARK  215  A    between atoms: _508  and  _509
REMARK  216  A    between atoms: _512  and  _514
REMARK  217  A    between atoms: _514  and  _515
REMARK  218  A    between atoms: _514  and  _517
REMARK  219  A    between atoms: _517  and  _518
REMARK  220  A    between atoms: _518  and  _519
REMARK  221  A    between atoms: _519  and  _520
REMARK  222  A    between atoms: _520  and  _521
REMARK  223  A    between atoms: _525  and  _527
REMARK  224  A    between atoms: _527  and  _528
REMARK  225  A    between atoms: _527  and  _530
REMARK  226  A    between atoms: _530  and  _531
REMARK  227  A    between atoms: _531  and  _532
REMARK  228  A    between atoms: _532  and  _533
REMARK  229  A    between atoms: _533  and  _534
REMARK  230  A    between atoms: _538  and  _540
REMARK  231  A    between atoms: _540  and  _541
REMARK  232  A    between atoms: _540  and  _543
REMARK  233  A    between atoms: _543  and  _544
REMARK  234  A    between atoms: _544  and  _545
REMARK  235  A    between atoms: _545  and  _546
REMARK  236  A    between atoms: _555  and  _557
REMARK  237  A    between atoms: _557  and  _558
REMARK  238  A    between atoms: _557  and  _560
REMARK  239  A    between atoms: _560  and  _561
REMARK  240  A    between atoms: _564  and  _566
REMARK  241  A    between atoms: _566  and  _567
REMARK  242  A    between atoms: _570  and  _572
REMARK  243  A    between atoms: _572  and  _573
REMARK  244  A    between atoms: _572  and  _575
REMARK  245  A    between atoms: _575  and  _576
REMARK  246  A    between atoms: _576  and  _577
REMARK                            x       y       z     vdW  Elec       q    Type
REMARK                         _______ _______ _______ _____ _____    ______ ____
ROOT
ATOM      1  O   HOH     1      30.097  -1.432  -3.946  0.00  0.00    +0.000 OA
ENDROOT
TORSDOF 0
REMARK  Name = ../refined-set-2016/3cct/3cct_pocket.pdb
REMARK  246 active torsions:
REMARK  status: ('A' for Active; 'I' for Inactive)
REMARK    1  A    between atoms: _1  and  _3
REMARK    2  A    between atoms: _3  and  _4
REMARK    3  A    between atoms: _3  and  _6
REMARK    4  A    between atoms: _6  and  _7
REMARK    5  A    between atoms: _10  and  _12
REMARK    6  A    between atoms: _12  and  _13
REMARK    7  A    between atoms: _12  and  _15
REMARK    8  A    between atoms: _15  and  _16
REMARK    9  A    between atoms: _16  and  _17
REMARK   10  A    between atoms: _20  and  _22
REMARK   11  A    between atoms: _22  and  _23
REMARK   12  A    between atoms: _25  and  _27
REMARK   13  A    between atoms: _27  and  _28
REMARK   14  A    between atoms: _27  and  _30
REMARK   15  A    between atoms: _32  and  _34
REMARK   16  A    between atoms: _34  and  _35
REMARK   17  A    between atoms: _34  and  _37
REMARK   18  A    between atoms: _37  and  _38
REMARK   19  A    between atoms: _41  and  _43
REMARK   20  A    between atoms: _43  and  _44
REMARK   21  A    between atoms: _43  and  _46
REMARK   22  A    between atoms: _49  and  _51
REMARK   23  A    between atoms: _51  and  _52
REMARK   24  A    between atoms: _55  and  _57
REMARK   25  A    between atoms: _57  and  _58
REMARK   26  A    between atoms: _57  and  _60
REMARK   27  A    between atoms: _60  and  _61
REMARK   28  A    between atoms: _63  and  _65
REMARK   29  A    between atoms: _65  and  _66
REMARK   30  A    between atoms: _65  and  _68
REMARK   31  A    between atoms: _68  and  _69
REMARK   32  A    between atoms: _72  and  _74
REMARK   33  A    between atoms: _74  and  _75
REMARK   34  A    between atoms: _74  and  _77
REMARK   35  A    between atoms: _77  and  _78
REMARK   36  A    between atoms: _83  and  _85
REMARK   37  A    between atoms: _85  and  _86
REMARK   38  A    between atoms: _85  and  _88
REMARK   39  A    between atoms: _88  and  _89
REMARK   40  A    between atoms: _89  and  _90
REMARK   41  A    between atoms: _90  and  _91
REMARK   42  A    between atoms: _100  and  _102
REMARK   43  A    between atoms: _102  and  _103
REMARK   44  A    between atoms: _105  and  _107
REMARK   45  A    between atoms: _107  and  _108
REMARK   46  A    between atoms: _107  and  _110
REMARK   47  A    between atoms: _113  and  _115
REMARK   48  A    between atoms: _115  and  _116
REMARK   49  A    between atoms: _115  and  _118
REMARK   50  A    between atoms: _118  and  _119
REMARK   51  A    between atoms: _122  and  _124
REMARK   52  A    between atoms: _124  and  _125
REMARK   53  A    between atoms: _124  and  _127
REMARK   54  A    between atoms: _127  and  _128
REMARK   55  A    between atoms: _128  and  _129
REMARK   56  A    between atoms: _129  and  _130
REMARK   57  A    between atoms: _130  and  _131
REMARK   58  A    between atoms: _135  and  _137
REMARK   59  A    between atoms: _137  and  _138
REMARK   60  A    between atoms: _137  and  _140
REMARK   61  A    between atoms: _140  and  _141
REMARK   62  A    between atoms: _141  and  _142
REMARK   63  A    between atoms: _142  and  _143
REMARK   64  A    between atoms: _143  and  _144
REMARK   65  A    between atoms: _148  and  _150
REMARK   66  A    between atoms: _150  and  _151
REMARK   67  A    between atoms: _150  and  _153
REMARK   68  A    between atoms: _153  and  _154
REMARK   69  A    between atoms: _159  and  _161
REMARK   70  A    between atoms: _161  and  _162
REMARK   71  A    between atoms: _161  and  _164
REMARK   72  A    between atoms: _164  and  _165
REMARK   73  A    between atoms: _170  and  _172
REMARK   74  A    between atoms: _172  and  _173
REMARK   75  A    between atoms: _176  and  _178
REMARK   76  A    between atoms: _178  and  _179
REMARK   77  A    between atoms: _178  and  _181
REMARK   78  A    between atoms: _181  and  _182
REMARK   79  A    between atoms: _187  and  _189
REMARK   80  A    between atoms: _189  and  _190
REMARK   81  A    between atoms: _193  and  _195
REMARK   82  A    between atoms: _195  and  _196
REMARK   83  A    between atoms: _199  and  _201
REMARK   84  A    between atoms: _201  and  _202
REMARK   85  A    between atoms: _201  and  _204
REMARK   86  A    between atoms: _204  and  _205
REMARK   87  A    between atoms: _210  and  _212
REMARK   88  A    between atoms: _212  and  _213
REMARK   89  A    between atoms: _212  and  _215
REMARK   90  A    between atoms: _215  and  _216
REMARK   91  A    between atoms: _219  and  _221
REMARK   92  A    between atoms: _221  and  _222
REMARK   93  A    between atoms: _224  and  _226
REMARK   94  A    between atoms: _226  and  _227
REMARK   95  A    between atoms: _226  and  _229
REMARK   96  A    between atoms: _229  and  _230
REMARK   97  A    between atoms: _230  and  _231
REMARK   98  A    between atoms: _234  and  _236
REMARK   99  A    between atoms: _236  and  _237
REMARK  100  A    between atoms: _236  and  _239
REMARK  101  A    between atoms: _239  and  _240
REMARK  102  A    between atoms: _242  and  _244
REMARK  103  A    between atoms: _244  and  _245
REMARK  104  A    between atoms: _244  and  _247
REMARK  105  A    between atoms: _247  and  _248
REMARK  106  A    between atoms: _251  and  _253
REMARK  107  A    between atoms: _253  and  _254
REMARK  108  A    between atoms: _253  and  _256
REMARK  109  A    between atoms: _256  and  _257
REMARK  110  A    between atoms: _257  and  _258
REMARK  111  A    between atoms: _260  and  _262
REMARK  112  A    between atoms: _262  and  _263
REMARK  113  A    between atoms: _266  and  _268
REMARK  114  A    between atoms: _268  and  _269
REMARK  115  A    between atoms: _272  and  _274
REMARK  116  A    between atoms: _274  and  _275
REMARK  117  A    between atoms: _274  and  _277
REMARK  118  A    between atoms: _277  and  _278
REMARK  119  A    between atoms: _281  and  _283
REMARK  120  A    between atoms: _283  and  _284
REMARK  121  A    between atoms: _287  and  _289
REMARK  122  A    between atoms: _289  and  _290
REMARK  123  A    between atoms: _293  and  _295
REMARK  124  A    between atoms: _295  and  _296
REMARK  125  A    between atoms: _298  and  _300
REMARK  126  A    between atoms: _300  and  _301
REMARK  127  A    between atoms: _300  and  _303
REMARK  128  A    between atoms: _303  and  _304
REMARK  129  A    between atoms: _309  and  _311
REMARK  130  A    between atoms: _311  and  _312
REMARK  131  A    between atoms: _311  and  _314
REMARK  132  A    between atoms: _314  and  _315
REMARK  133  A    between atoms: _315  and  _316
REMARK  134  A    between atoms: _319  and  _321
REMARK  135  A    between atoms: _321  and  _322
REMARK  136  A    between atoms: _321  and  _324
REMARK  137  A    between atoms: _324  and  _325
REMARK  138  A    between atoms: _328  and  _330
REMARK  139  A    between atoms: _330  and  _331
REMARK  140  A    between atoms: _330  and  _333
REMARK  141  A    between atoms: _333  and  _334
REMARK  142  A    between atoms: _334  and  _335
REMARK  143  A    between atoms: _335  and  _336
REMARK  144  A    between atoms: _345  and  _347
REMARK  145  A    between atoms: _347  and  _348
REMARK  146  A    between atoms: _351  and  _352
REMARK  147  A    between atoms: _357  and  _359
REMARK  148  A    between atoms: _359  and  _360
REMARK  149  A    between atoms: _359  and  _362
REMARK  150  A    between atoms: _362  and  _363
REMARK  151  A    between atoms: _363  and  _364
REMARK  152  A    between atoms: _366  and  _368
REMARK  153  A    between atoms: _368  and  _369
REMARK  154  A    between atoms: _368  and  _371
REMARK  155  A    between atoms: _371  and  _372
REMARK  156  A    between atoms: _372  and  _373
REMARK  157  A    between atoms: _375  and  _377
REMARK  158  A    between atoms: _377  and  _378
REMARK  159  A    between atoms: _377  and  _380
REMARK  160  A    between atoms: _380  and  _381
REMARK  161  A    between atoms: _386  and  _388
REMARK  162  A    between atoms: _388  and  _389
REMARK  163  A    between atoms: _388  and  _391
REMARK  164  A    between atoms: _391  and  _392
REMARK  165  A    between atoms: _395  and  _397
REMARK  166  A    between atoms: _397  and  _398
REMARK  167  A    between atoms: _397  and  _400
REMARK  168  A    between atoms: _400  and  _401
REMARK  169  A    between atoms: _403  and  _405
REMARK  170  A    between atoms: _405  and  _406
REMARK  171  A    between atoms: _405  and  _408
REMARK  172  A    between atoms: _408  and  _409
REMARK  173  A    between atoms: _409  and  _410
REMARK  174  A    between atoms: _410  and  _411
REMARK  175  A    between atoms: _411  and  _412
REMARK  176  A    between atoms: _416  and  _418
REMARK  177  A    between atoms: _418  and  _419
REMARK  178  A    between atoms: _418  and  _421
REMARK  179  A    between atoms: _421  and  _422
REMARK  180  A    between atoms: _425  and  _427
REMARK  181  A    between atoms: _427  and  _428
REMARK  182  A    between atoms: _427  and  _430
REMARK  183  A    between atoms: _430  and  _431
REMARK  184  A    between atoms: _431  and  _432
REMARK  185  A    between atoms: _435  and  _437
REMARK  186  A    between atoms: _437  and  _438
REMARK  187  A    between atoms: _441  and  _443
REMARK  188  A    between atoms: _443  and  _444
REMARK  189  A    between atoms: _443  and  _446
REMARK  190  A    between atoms: _449  and  _451
REMARK  191  A    between atoms: _451  and  _452
REMARK  192  A    between atoms: _451  and  _454
REMARK  193  A    between atoms: _454  and  _455
REMARK  194  A    between atoms: _457  and  _459
REMARK  195  A    between atoms: _459  and  _460
REMARK  196  A    between atoms: _462  and  _464
REMARK  197  A    between atoms: _464  and  _465
REMARK  198  A    between atoms: _464  and  _467
REMARK  199  A    between atoms: _467  and  _468
REMARK  200  A    between atoms: _473  and  _475
REMARK  201  A    between atoms: _475  and  _476
REMARK  202  A    between atoms: _475  and  _478
REMARK  203  A    between atoms: _478  and  _479
REMARK  204  A    between atoms: _484  and  _485
REMARK  205  A    between atoms: _487  and  _489
REMARK  206  A    between atoms: _489  and  _490
REMARK  207  A    between atoms: _489  and  _492
REMARK  208  A    between atoms: _494  and  _496
REMARK  209  A    between atoms: _496  and  _497
REMARK  210  A    between atoms: _496  and  _499
REMARK  211  A    between atoms: _499  and  _500
REMARK  212  A    between atoms: _503  and  _505
REMARK  213  A    between atoms: _505  and  _506
REMARK  214  A    between atoms: _505  and  _508
REMARK  215  A    between atoms: _508  and  _509
REMARK  216  A    between atoms: _512  and  _514
REMARK  217  A    between atoms: _514  and  _515
REMARK  218  A    between atoms: _514  and  _517
REMARK  219  A    between atoms: _517  and  _518
REMARK  220  A    between atoms: _518  and  _519
REMARK  221  A    between atoms: _519  and  _520
REMARK  222  A    between atoms: _520  and  _521
REMARK  223  A    between atoms: _525  and  _527
REMARK  224  A    between atoms: _527  and  _528
REMARK  225  A    between atoms: _527  and  _530
REMARK  226  A    between atoms: _530  and  _531
REMARK  227  A    between atoms: _531  and  _532
REMARK  228  A    between atoms: _532  and  _533
REMARK  229  A    between atoms: _533  and  _534
REMARK  230  A    between atoms: _538  and  _540
REMARK  231  A    between atoms: _540  and  _541
REMARK  232  A    between atoms: _540  and  _543
REMARK  233  A    between atoms: _543  and  _544
REMARK  234  A    between atoms: _544  and  _545
REMARK  235  A    between atoms: _545  and  _546
REMARK  236  A    between atoms: _555  and  _557
REMARK  237  A    between atoms: _557  and  _558
REMARK  238  A    between atoms: _557  and  _560
REMARK  239  A    between atoms: _560  and  _561
REMARK  240  A    between atoms: _564  and  _566
REMARK  241  A    between atoms: _566  and  _567
REMARK  242  A    between atoms: _570  and  _572
REMARK  243  A    between atoms: _572  and  _573
REMARK  244  A    between atoms: _572  and  _575
REMARK  245  A    between atoms: _575  and  _576
REMARK  246  A    between atoms: _576  and  _577
REMARK                            x       y       z     vdW  Elec       q    Type
REMARK                         _______ _______ _______ _____ _____    ______ ____
ROOT
ATOM      1  O   HOH     1      32.818 -16.975 -13.814  0.00  0.00    +0.000 OA
ENDROOT
TORSDOF 0
