REMARK  Name = ../refined-set-2016/2xnb/2xnb_pocket.pdb
REMARK  227 active torsions:
REMARK  status: ('A' for Active; 'I' for Inactive)
REMARK    1  A    between atoms: _1  and  _3
REMARK    2  A    between atoms: _3  and  _4
REMARK    3  A    between atoms: _3  and  _6
REMARK    4  A    between atoms: _6  and  _7
REMARK    5  A    between atoms: _7  and  _8
REMARK    6  A    between atoms: _11  and  _13
REMARK    7  A    between atoms: _13  and  _14
REMARK    8  A    between atoms: _13  and  _16
REMARK    9  A    between atoms: _16  and  _17
REMARK   10  A    between atoms: _17  and  _18
REMARK   11  A    between atoms: _18  and  _19
REMARK   12  A    between atoms: _19  and  _20
REMARK   13  A    between atoms: _24  and  _26
REMARK   14  A    between atoms: _26  and  _27
REMARK   15  A    between atoms: _26  and  _29
REMARK   16  A    between atoms: _29  and  _30
REMARK   17  A    between atoms: _33  and  _35
REMARK   18  A    between atoms: _35  and  _36
REMARK   19  A    between atoms: _38  and  _40
REMARK   20  A    between atoms: _40  and  _41
REMARK   21  A    between atoms: _40  and  _43
REMARK   22  A    between atoms: _43  and  _44
REMARK   23  A    between atoms: _44  and  _45
REMARK   24  A    between atoms: _48  and  _50
REMARK   25  A    between atoms: _50  and  _51
REMARK   26  A    between atoms: _53  and  _55
REMARK   27  A    between atoms: _55  and  _56
REMARK   28  A    between atoms: _55  and  _58
REMARK   29  A    between atoms: _58  and  _59
REMARK   30  A    between atoms: _62  and  _64
REMARK   31  A    between atoms: _64  and  _65
REMARK   32  A    between atoms: _64  and  _67
REMARK   33  A    between atoms: _67  and  _68
REMARK   34  A    between atoms: _73  and  _74
REMARK   35  A    between atoms: _76  and  _78
REMARK   36  A    between atoms: _78  and  _79
REMARK   37  A    between atoms: _81  and  _83
REMARK   38  A    between atoms: _83  and  _84
REMARK   39  A    between atoms: _83  and  _86
REMARK   40  A    between atoms: _89  and  _91
REMARK   41  A    between atoms: _91  and  _92
REMARK   42  A    between atoms: _91  and  _94
REMARK   43  A    between atoms: _97  and  _99
REMARK   44  A    between atoms: _99  and  _100
REMARK   45  A    between atoms: _99  and  _102
REMARK   46  A    between atoms: _102  and  _103
REMARK   47  A    between atoms: _108  and  _109
REMARK   48  A    between atoms: _111  and  _113
REMARK   49  A    between atoms: _113  and  _114
REMARK   50  A    between atoms: _113  and  _116
REMARK   51  A    between atoms: _116  and  _117
REMARK   52  A    between atoms: _117  and  _118
REMARK   53  A    between atoms: _118  and  _119
REMARK   54  A    between atoms: _119  and  _120
REMARK   55  A    between atoms: _124  and  _126
REMARK   56  A    between atoms: _126  and  _127
REMARK   57  A    between atoms: _126  and  _129
REMARK   58  A    between atoms: _132  and  _134
REMARK   59  A    between atoms: _134  and  _135
REMARK   60  A    between atoms: _134  and  _137
REMARK   61  A    between atoms: _140  and  _142
REMARK   62  A    between atoms: _142  and  _143
REMARK   63  A    between atoms: _146  and  _148
REMARK   64  A    between atoms: _148  and  _149
REMARK   65  A    between atoms: _148  and  _151
REMARK   66  A    between atoms: _151  and  _152
REMARK   67  A    between atoms: _155  and  _157
REMARK   68  A    between atoms: _157  and  _158
REMARK   69  A    between atoms: _157  and  _160
REMARK   70  A    between atoms: _160  and  _161
REMARK   71  A    between atoms: _161  and  _162
REMARK   72  A    between atoms: _162  and  _163
REMARK   73  A    between atoms: _163  and  _164
REMARK   74  A    between atoms: _168  and  _170
REMARK   75  A    between atoms: _170  and  _171
REMARK   76  A    between atoms: _170  and  _173
REMARK   77  A    between atoms: _173  and  _174
REMARK   78  A    between atoms: _174  and  _175
REMARK   79  A    between atoms: _175  and  _176
REMARK   80  A    between atoms: _176  and  _177
REMARK   81  A    between atoms: _181  and  _183
REMARK   82  A    between atoms: _183  and  _184
REMARK   83  A    between atoms: _183  and  _186
REMARK   84  A    between atoms: _186  and  _187
REMARK   85  A    between atoms: _190  and  _192
REMARK   86  A    between atoms: _192  and  _193
REMARK   87  A    between atoms: _192  and  _195
REMARK   88  A    between atoms: _198  and  _200
REMARK   89  A    between atoms: _200  and  _201
REMARK   90  A    between atoms: _200  and  _203
REMARK   91  A    between atoms: _203  and  _204
REMARK   92  A    between atoms: _204  and  _205
REMARK   93  A    between atoms: _205  and  _206
REMARK   94  A    between atoms: _206  and  _207
REMARK   95  A    between atoms: _211  and  _213
REMARK   96  A    between atoms: _213  and  _214
REMARK   97  A    between atoms: _213  and  _216
REMARK   98  A    between atoms: _216  and  _217
REMARK   99  A    between atoms: _220  and  _222
REMARK  100  A    between atoms: _222  and  _223
REMARK  101  A    between atoms: _222  and  _225
REMARK  102  A    between atoms: _225  and  _226
REMARK  103  A    between atoms: _229  and  _231
REMARK  104  A    between atoms: _231  and  _232
REMARK  105  A    between atoms: _231  and  _234
REMARK  106  A    between atoms: _234  and  _235
REMARK  107  A    between atoms: _238  and  _240
REMARK  108  A    between atoms: _240  and  _241
REMARK  109  A    between atoms: _240  and  _243
REMARK  110  A    between atoms: _246  and  _248
REMARK  111  A    between atoms: _248  and  _249
REMARK  112  A    between atoms: _248  and  _251
REMARK  113  A    between atoms: _251  and  _252
REMARK  114  A    between atoms: _258  and  _260
REMARK  115  A    between atoms: _260  and  _261
REMARK  116  A    between atoms: _260  and  _263
REMARK  117  A    between atoms: _263  and  _264
REMARK  118  A    between atoms: _264  and  _265
REMARK  119  A    between atoms: _268  and  _270
REMARK  120  A    between atoms: _270  and  _271
REMARK  121  A    between atoms: _270  and  _273
REMARK  122  A    between atoms: _273  and  _274
REMARK  123  A    between atoms: _280  and  _282
REMARK  124  A    between atoms: _282  and  _283
REMARK  125  A    between atoms: _282  and  _285
REMARK  126  A    between atoms: _285  and  _286
REMARK  127  A    between atoms: _289  and  _291
REMARK  128  A    between atoms: _291  and  _292
REMARK  129  A    between atoms: _291  and  _294
REMARK  130  A    between atoms: _294  and  _295
REMARK  131  A    between atoms: _300  and  _302
REMARK  132  A    between atoms: _302  and  _303
REMARK  133  A    between atoms: _302  and  _305
REMARK  134  A    between atoms: _305  and  _306
REMARK  135  A    between atoms: _306  and  _307
REMARK  136  A    between atoms: _312  and  _314
REMARK  137  A    between atoms: _314  and  _315
REMARK  138  A    between atoms: _314  and  _317
REMARK  139  A    between atoms: _317  and  _318
REMARK  140  A    between atoms: _321  and  _323
REMARK  141  A    between atoms: _323  and  _324
REMARK  142  A    between atoms: _323  and  _326
REMARK  143  A    between atoms: _326  and  _327
REMARK  144  A    between atoms: _330  and  _332
REMARK  145  A    between atoms: _332  and  _333
REMARK  146  A    between atoms: _332  and  _335
REMARK  147  A    between atoms: _335  and  _336
REMARK  148  A    between atoms: _336  and  _337
REMARK  149  A    between atoms: _337  and  _338
REMARK  150  A    between atoms: _338  and  _339
REMARK  151  A    between atoms: _343  and  _345
REMARK  152  A    between atoms: _345  and  _346
REMARK  153  A    between atoms: _345  and  _348
REMARK  154  A    between atoms: _348  and  _349
REMARK  155  A    between atoms: _349  and  _350
REMARK  156  A    between atoms: _350  and  _351
REMARK  157  A    between atoms: _351  and  _352
REMARK  158  A    between atoms: _356  and  _358
REMARK  159  A    between atoms: _358  and  _359
REMARK  160  A    between atoms: _358  and  _361
REMARK  161  A    between atoms: _361  and  _362
REMARK  162  A    between atoms: _368  and  _370
REMARK  163  A    between atoms: _370  and  _371
REMARK  164  A    between atoms: _370  and  _373
REMARK  165  A    between atoms: _373  and  _374
REMARK  166  A    between atoms: _377  and  _379
REMARK  167  A    between atoms: _379  and  _380
REMARK  168  A    between atoms: _379  and  _382
REMARK  169  A    between atoms: _382  and  _383
REMARK  170  A    between atoms: _388  and  _390
REMARK  171  A    between atoms: _390  and  _391
REMARK  172  A    between atoms: _390  and  _393
REMARK  173  A    between atoms: _393  and  _394
REMARK  174  A    between atoms: _394  and  _395
REMARK  175  A    between atoms: _395  and  _396
REMARK  176  A    between atoms: _396  and  _397
REMARK  177  A    between atoms: _402  and  _403
REMARK  178  A    between atoms: _408  and  _410
REMARK  179  A    between atoms: _410  and  _411
REMARK  180  A    between atoms: _410  and  _413
REMARK  181  A    between atoms: _413  and  _414
REMARK  182  A    between atoms: _414  and  _415
REMARK  183  A    between atoms: _420  and  _422
REMARK  184  A    between atoms: _422  and  _423
REMARK  185  A    between atoms: _422  and  _425
REMARK  186  A    between atoms: _425  and  _426
REMARK  187  A    between atoms: _431  and  _433
REMARK  188  A    between atoms: _433  and  _434
REMARK  189  A    between atoms: _433  and  _436
REMARK  190  A    between atoms: _436  and  _437
REMARK  191  A    between atoms: _440  and  _442
REMARK  192  A    between atoms: _442  and  _443
REMARK  193  A    between atoms: _442  and  _445
REMARK  194  A    between atoms: _445  and  _446
REMARK  195  A    between atoms: _449  and  _451
REMARK  196  A    between atoms: _451  and  _452
REMARK  197  A    between atoms: _451  and  _454
REMARK  198  A    between atoms: _454  and  _455
REMARK  199  A    between atoms: _458  and  _460
REMARK  200  A    between atoms: _460  and  _461
REMARK  201  A    between atoms: _460  and  _463
REMARK  202  A    between atoms: _463  and  _464
REMARK  203  A    between atoms: _464  and  _465
REMARK  204  A    between atoms: _465  and  _466
REMARK  205  A    between atoms: _466  and  _467
REMARK  206  A    between atoms: _471  and  _473
REMARK  207  A    between atoms: _473  and  _474
REMARK  208  A    between atoms: _473  and  _476
REMARK  209  A    between atoms: _476  and  _477
REMARK  210  A    between atoms: _480  and  _482
REMARK  211  A    between atoms: _482  and  _483
REMARK  212  A    between atoms: _486  and  _488
REMARK  213  A    between atoms: _488  and  _489
REMARK  214  A    between atoms: _488  and  _491
REMARK  215  A    between atoms: _491  and  _492
REMARK  216  A    between atoms: _495  and  _497
REMARK  217  A    between atoms: _497  and  _498
REMARK  218  A    between atoms: _497  and  _500
REMARK  219  A    between atoms: _500  and  _501
REMARK  220  A    between atoms: _507  and  _509
REMARK  221  A    between atoms: _509  and  _510
REMARK  222  A    between atoms: _509  and  _512
REMARK  223  A    between atoms: _512  and  _513
REMARK  224  A    between atoms: _516  and  _518
REMARK  225  A    between atoms: _518  and  _519
REMARK  226  A    between atoms: _518  and  _521
REMARK  227  A    between atoms: _521  and  _522
REMARK                            x       y       z     vdW  Elec       q    Type
REMARK                         _______ _______ _______ _____ _____    ______ ____
ROOT
ATOM      1  C   THR A   7      35.506  22.857  20.865  0.00  0.00    +0.243 C 
ATOM      2  N   TYR A   8      36.040  24.054  21.083  0.00  0.00    -0.297 N 
ATOM      3  H   TYR A   8      35.557  24.903  20.726  0.00  0.00    +0.150 HD
ATOM      4  O   THR A   7      36.188  21.827  20.859  0.00  0.00    -0.273 OA
ENDROOT
BRANCH   1   5
ATOM      5  CA  THR A   7      33.988  22.794  20.607  0.00  0.00    +0.176 C 
BRANCH   5   7
ATOM      6  C   GLY A   6      33.168  24.846  21.816  0.00  0.00    +0.243 C 
ATOM      7  N   THR A   7      33.123  23.531  21.568  0.00  0.00    -0.295 N 
ATOM      8  H   THR A   7      32.420  22.974  22.095  0.00  0.00    +0.150 HD
ATOM      9  O   GLY A   6      33.907  25.631  21.222  0.00  0.00    -0.273 OA
BRANCH   6  10
ATOM     10  CA  GLY A   6      32.216  25.373  22.883  0.00  0.00    +0.176 C 
BRANCH  10  12
ATOM     11  C   GLU A   5      30.924  23.620  23.979  0.00  0.00    +0.241 C 
ATOM     12  N   GLY A   6      31.978  24.434  23.978  0.00  0.00    -0.295 N 
ATOM     13  H   GLY A   6      32.647  24.401  24.774  0.00  0.00    +0.150 HD
ATOM     14  O   GLU A   5      29.983  23.767  23.188  0.00  0.00    -0.273 OA
BRANCH  11  15
ATOM     15  CA  GLU A   5      30.865  22.568  25.112  0.00  0.00    +0.149 C 
BRANCH  15  18
ATOM     16  C   GLY A   4      29.258  22.622  26.978  0.00  0.00    +0.243 C 
ATOM     17  O   GLY A   4      30.068  22.366  27.863  0.00  0.00    -0.273 OA
ATOM     18  N   GLU A   5      29.517  22.519  25.679  0.00  0.00    -0.297 N 
ATOM     19  H   GLU A   5      28.716  22.396  25.028  0.00  0.00    +0.150 HD
BRANCH  16  20
ATOM     20  CA  GLY A   4      27.821  22.967  27.290  0.00  0.00    +0.176 C 
BRANCH  20  22
ATOM     21  C   ILE A   3      26.283  23.537  29.053  0.00  0.00    +0.241 C 
ATOM     22  N   GLY A   4      27.472  23.056  28.698  0.00  0.00    -0.295 N 
ATOM     23  H   GLY A   4      28.148  22.745  29.425  0.00  0.00    +0.150 HD
ATOM     24  O   ILE A   3      25.402  23.805  28.229  0.00  0.00    -0.273 OA
BRANCH  21  25
ATOM     25  CA  ILE A   3      26.053  23.797  30.539  0.00  0.00    +0.149 C 
BRANCH  25  28
ATOM     26  C   LYS A   2      27.099  22.390  32.212  0.00  0.00    +0.241 C 
ATOM     27  O   LYS A   2      26.083  21.683  32.298  0.00  0.00    -0.273 OA
ATOM     28  N   ILE A   3      27.189  23.435  31.395  0.00  0.00    -0.297 N 
ATOM     29  H   ILE A   3      28.064  23.996  31.362  0.00  0.00    +0.150 HD
BRANCH  26  30
ATOM     30  CA  LYS A   2      28.314  22.066  33.063  0.00  0.00    +0.149 C 
BRANCH  30  33
ATOM     31  C   GLU A   1      27.674  23.253  35.079  0.00  0.00    +0.238 C 
ATOM     32  O   GLU A   1      27.938  24.342  34.567  0.00  0.00    -0.274 OA
ATOM     33  N   LYS A   2      27.870  22.101  34.450  0.00  0.00    -0.297 N 
ATOM     34  H   LYS A   2      27.704  21.208  34.956  0.00  0.00    +0.150 HD
BRANCH  31  35
ATOM     35  CA  GLU A   1      27.149  23.144  36.511  0.00  0.00    +0.145 C 
BRANCH  35  36
ATOM     36  N   GLU A   1      27.516  24.266  37.388  0.00  0.00    -0.238 NA
ATOM     37  H   GLU A   1      28.011  25.089  36.989  0.00  0.00    +0.142 HD
ENDBRANCH  35  36
BRANCH  35  38
ATOM     38  CB  GLU A   1      25.629  22.908  36.492  0.00  0.00    +0.038 C 
BRANCH  38  39
ATOM     39  CG  GLU A   1      24.787  24.041  35.906  0.00  0.00    +0.116 C 
BRANCH  39  40
ATOM     40  CD  GLU A   1      23.305  23.943  36.272  0.00  0.00    +0.365 C 
ATOM     41  OE2 GLU A   1      22.922  24.230  37.434  0.00  0.00    -0.246 OA
ATOM     42  OE1 GLU A   1      22.507  23.619  35.372  0.00  0.00    -0.246 OA
ENDBRANCH  39  40
ENDBRANCH  38  39
ENDBRANCH  35  38
ENDBRANCH  31  35
ENDBRANCH  30  33
BRANCH  30  43
ATOM     43  CB  LYS A   2      28.842  20.674  32.708  0.00  0.00    +0.029 C 
BRANCH  43  44
ATOM     44  CG  LYS A   2      29.729  20.602  31.452  0.00  0.00    +0.000 C 
BRANCH  44  45
ATOM     45  CD  LYS A   2      30.061  19.145  31.083  0.00  0.00    -0.024 C 
BRANCH  45  46
ATOM     46  CE  LYS A   2      31.170  19.029  30.033  0.00  0.00    -0.086 C 
BRANCH  46  47
ATOM     47  NZ  LYS A   2      31.336  17.628  29.507  0.00  0.00    +0.380 N 
ATOM     48  HZ1 LYS A   2      31.575  16.990  30.293  0.00  0.00    -0.089 HD
ATOM     49  HZ2 LYS A   2      30.447  17.317  29.065  0.00  0.00    -0.089 HD
ATOM     50  HZ3 LYS A   2      32.100  17.612  28.801  0.00  0.00    -0.089 HD
ENDBRANCH  46  47
ENDBRANCH  45  46
ENDBRANCH  44  45
ENDBRANCH  43  44
ENDBRANCH  30  43
ENDBRANCH  26  30
ENDBRANCH  25  28
BRANCH  25  51
ATOM     51  CB  ILE A   3      25.562  25.240  30.764  0.00  0.00    +0.027 C 
ATOM     52  CG2 ILE A   3      25.029  25.403  32.177  0.00  0.00    +0.002 C 
BRANCH  51  53
ATOM     53  CG1 ILE A   3      26.649  26.297  30.489  0.00  0.00    +0.002 C 
ATOM     54  CD1 ILE A   3      26.130  27.691  30.747  0.00  0.00    +0.000 C 
ENDBRANCH  51  53
ENDBRANCH  25  51
ENDBRANCH  21  25
ENDBRANCH  20  22
ENDBRANCH  16  20
ENDBRANCH  15  18
BRANCH  15  55
ATOM     55  CB  GLU A   5      31.291  21.169  24.631  0.00  0.00    +0.041 C 
BRANCH  55  56
ATOM     56  CG  GLU A   5      31.093  20.896  23.139  0.00  0.00    +0.116 C 
BRANCH  56  57
ATOM     57  CD  GLU A   5      29.639  20.611  22.737  0.00  0.00    +0.365 C 
ATOM     58  OE2 GLU A   5      28.872  20.057  23.559  0.00  0.00    -0.246 OA
ATOM     59  OE1 GLU A   5      29.275  20.898  21.570  0.00  0.00    -0.246 OA
ENDBRANCH  56  57
ENDBRANCH  55  56
ENDBRANCH  15  55
ENDBRANCH  11  15
ENDBRANCH  10  12
ENDBRANCH   6  10
ENDBRANCH   5   7
BRANCH   5  60
ATOM     60  CB  THR A   7      33.673  23.096  19.096  0.00  0.00    +0.137 C 
ATOM     61  CG2 THR A   7      32.922  21.924  18.441  0.00  0.00    +0.034 C 
BRANCH  60  62
ATOM     62  OG1 THR A   7      32.880  24.286  18.968  0.00  0.00    -0.382 OA
ATOM     63  HG1 THR A   7      33.374  25.053  19.351  0.00  0.00    +0.210 HD
ENDBRANCH  60  62
ENDBRANCH   5  60
ENDBRANCH   1   5
BRANCH   2  64
ATOM     64  CA  TYR A   8      37.296  24.196  21.817  0.00  0.00    +0.153 C 
BRANCH  64  65
ATOM     65  C   TYR A   8      37.070  23.839  23.290  0.00  0.00    +0.241 C 
ATOM     66  N   GLY A   9      36.254  24.639  23.974  0.00  0.00    -0.295 N 
ATOM     67  H   GLY A   9      35.649  25.307  23.454  0.00  0.00    +0.150 HD
ATOM     68  O   TYR A   8      37.517  22.781  23.749  0.00  0.00    -0.273 OA
BRANCH  66  69
ATOM     69  CA  GLY A   9      36.184  24.606  25.432  0.00  0.00    +0.176 C 
BRANCH  69  70
ATOM     70  C   GLY A   9      35.003  23.855  26.032  0.00  0.00    +0.243 C 
ATOM     71  N   VAL A  10      35.074  23.630  27.338  0.00  0.00    -0.297 N 
ATOM     72  H   VAL A  10      35.997  23.716  27.809  0.00  0.00    +0.150 HD
ATOM     73  O   GLY A   9      34.094  23.416  25.332  0.00  0.00    -0.273 OA
BRANCH  71  74
ATOM     74  CA  VAL A  10      33.915  23.268  28.139  0.00  0.00    +0.149 C 
BRANCH  74  75
ATOM     75  C   VAL A  10      33.375  24.550  28.777  0.00  0.00    +0.241 C 
ATOM     76  O   VAL A  10      34.166  25.336  29.293  0.00  0.00    -0.273 OA
ATOM     77  N   VAL A  11      32.048  24.723  28.777  0.00  0.00    -0.297 N 
ATOM     78  H   VAL A  11      31.456  24.004  28.314  0.00  0.00    +0.150 HD
BRANCH  77  79
ATOM     79  CA  VAL A  11      31.380  25.885  29.402  0.00  0.00    +0.149 C 
BRANCH  79  80
ATOM     80  C   VAL A  11      30.574  25.506  30.662  0.00  0.00    +0.241 C 
ATOM     81  N   TYR A  12      30.749  26.258  31.749  0.00  0.00    -0.297 N 
ATOM     82  H   TYR A  12      31.409  27.059  31.687  0.00  0.00    +0.150 HD
ATOM     83  O   VAL A  11      29.772  24.585  30.627  0.00  0.00    -0.273 OA
BRANCH  81  84
ATOM     84  CA  TYR A  12      30.062  26.022  33.037  0.00  0.00    +0.153 C 
BRANCH  84  85
ATOM     85  C   TYR A  12      29.250  27.257  33.436  0.00  0.00    +0.241 C 
ATOM     86  N   LYS A  13      28.061  27.054  33.992  0.00  0.00    -0.298 N 
ATOM     87  H   LYS A  13      27.535  26.186  33.767  0.00  0.00    +0.150 HD
ATOM     88  O   TYR A  12      29.747  28.376  33.362  0.00  0.00    -0.273 OA
BRANCH  86  89
ATOM     89  CA  LYS A  13      27.477  28.028  34.915  0.00  0.00    +0.137 C 
BRANCH  89  90
ATOM     90  C   LYS A  13      28.279  28.102  36.195  0.00  0.00    +0.227 C 
ATOM     91  O   LYS A  13      28.623  27.080  36.781  0.00  0.00    -0.286 OA
ENDBRANCH  89  90
BRANCH  89  92
ATOM     92  CB  LYS A  13      26.023  27.679  35.248  0.00  0.00    +0.028 C 
BRANCH  92  93
ATOM     93  CG  LYS A  13      25.398  28.650  36.263  0.00  0.00    -0.000 C 
BRANCH  93  94
ATOM     94  CD  LYS A  13      24.024  28.173  36.708  0.00  0.00    -0.024 C 
BRANCH  94  95
ATOM     95  CE  LYS A  13      22.995  29.286  36.661  0.00  0.00    -0.086 C 
BRANCH  95  96
ATOM     96  NZ  LYS A  13      21.713  28.924  37.325  0.00  0.00    +0.380 N 
ATOM     97  HZ1 LYS A  13      21.893  28.702  38.325  0.00  0.00    -0.089 HD
ATOM     98  HZ2 LYS A  13      21.052  29.724  37.260  0.00  0.00    -0.089 HD
ATOM     99  HZ3 LYS A  13      21.302  28.094  36.853  0.00  0.00    -0.089 HD
ENDBRANCH  95  96
ENDBRANCH  94  95
ENDBRANCH  93  94
ENDBRANCH  92  93
ENDBRANCH  89  92
ENDBRANCH  86  89
ENDBRANCH  84  85
BRANCH  84 100
ATOM    100  CB  TYR A  12      31.083  25.765  34.156  0.00  0.00    +0.055 C 
BRANCH 100 101
ATOM    101  CG  TYR A  12      31.911  24.530  33.975  0.00  0.00    -0.020 A 
ATOM    102  CD2 TYR A  12      31.488  23.310  34.498  0.00  0.00    -0.001 A 
ATOM    103  CE2 TYR A  12      32.208  22.140  34.262  0.00  0.00    +0.036 A 
ATOM    104  CZ  TYR A  12      33.364  22.190  33.508  0.00  0.00    +0.134 A 
ATOM    105  CE1 TYR A  12      33.816  23.392  32.997  0.00  0.00    +0.036 A 
ATOM    106  CD1 TYR A  12      33.077  24.553  33.216  0.00  0.00    -0.001 A 
BRANCH 104 107
ATOM    107  OH  TYR A  12      34.091  21.044  33.275  0.00  0.00    -0.506 OA
ATOM    108  HH  TYR A  12      33.639  20.275  33.704  0.00  0.00    +0.292 HD
ENDBRANCH 104 107
ENDBRANCH 100 101
ENDBRANCH  84 100
ENDBRANCH  81  84
ENDBRANCH  79  80
BRANCH  79 109
ATOM    109  CB  VAL A  11      30.422  26.616  28.435  0.00  0.00    +0.027 C 
ATOM    110  CG2 VAL A  11      30.150  28.073  28.990  0.00  0.00    +0.002 C 
ATOM    111  CG1 VAL A  11      31.014  26.723  27.005  0.00  0.00    +0.002 C 
ENDBRANCH  79 109
ENDBRANCH  77  79
ENDBRANCH  74  75
BRANCH  74 112
ATOM    112  CB  VAL A  10      34.305  22.286  29.274  0.00  0.00    +0.027 C 
ATOM    113  CG2 VAL A  10      33.103  21.975  30.165  0.00  0.00    +0.002 C 
ATOM    114  CG1 VAL A  10      35.426  22.876  30.107  0.00  0.00    +0.002 C 
ENDBRANCH  74 112
ENDBRANCH  71  74
ENDBRANCH  69  70
ENDBRANCH  66  69
ENDBRANCH  64  65
BRANCH  64 115
ATOM    115  CB  TYR A   8      37.834  25.622  21.675  0.00  0.00    +0.055 C 
BRANCH 115 116
ATOM    116  CG  TYR A   8      37.037  26.433  20.681  0.00  0.00    -0.020 A 
ATOM    117  CD2 TYR A   8      35.826  27.008  21.053  0.00  0.00    -0.001 A 
ATOM    118  CE2 TYR A   8      35.045  27.697  20.141  0.00  0.00    +0.036 A 
ATOM    119  CZ  TYR A   8      35.455  27.789  18.825  0.00  0.00    +0.134 A 
ATOM    120  CE1 TYR A   8      36.655  27.216  18.423  0.00  0.00    +0.036 A 
ATOM    121  CD1 TYR A   8      37.434  26.533  19.350  0.00  0.00    -0.001 A 
BRANCH 119 122
ATOM    122  OH  TYR A   8      34.657  28.477  17.932  0.00  0.00    -0.506 OA
ATOM    123  HH  TYR A   8      35.076  28.459  17.035  0.00  0.00    +0.292 HD
ENDBRANCH 119 122
ENDBRANCH 115 116
ENDBRANCH  64 115
ENDBRANCH   2  64
TORSDOF 54
REMARK  Name = ../refined-set-2016/2xnb/2xnb_pocket.pdb
REMARK  227 active torsions:
REMARK  status: ('A' for Active; 'I' for Inactive)
REMARK    1  A    between atoms: _1  and  _3
REMARK    2  A    between atoms: _3  and  _4
REMARK    3  A    between atoms: _3  and  _6
REMARK    4  A    between atoms: _6  and  _7
REMARK    5  A    between atoms: _7  and  _8
REMARK    6  A    between atoms: _11  and  _13
REMARK    7  A    between atoms: _13  and  _14
REMARK    8  A    between atoms: _13  and  _16
REMARK    9  A    between atoms: _16  and  _17
REMARK   10  A    between atoms: _17  and  _18
REMARK   11  A    between atoms: _18  and  _19
REMARK   12  A    between atoms: _19  and  _20
REMARK   13  A    between atoms: _24  and  _26
REMARK   14  A    between atoms: _26  and  _27
REMARK   15  A    between atoms: _26  and  _29
REMARK   16  A    between atoms: _29  and  _30
REMARK   17  A    between atoms: _33  and  _35
REMARK   18  A    between atoms: _35  and  _36
REMARK   19  A    between atoms: _38  and  _40
REMARK   20  A    between atoms: _40  and  _41
REMARK   21  A    between atoms: _40  and  _43
REMARK   22  A    between atoms: _43  and  _44
REMARK   23  A    between atoms: _44  and  _45
REMARK   24  A    between atoms: _48  and  _50
REMARK   25  A    between atoms: _50  and  _51
REMARK   26  A    between atoms: _53  and  _55
REMARK   27  A    between atoms: _55  and  _56
REMARK   28  A    between atoms: _55  and  _58
REMARK   29  A    between atoms: _58  and  _59
REMARK   30  A    between atoms: _62  and  _64
REMARK   31  A    between atoms: _64  and  _65
REMARK   32  A    between atoms: _64  and  _67
REMARK   33  A    between atoms: _67  and  _68
REMARK   34  A    between atoms: _73  and  _74
REMARK   35  A    between atoms: _76  and  _78
REMARK   36  A    between atoms: _78  and  _79
REMARK   37  A    between atoms: _81  and  _83
REMARK   38  A    between atoms: _83  and  _84
REMARK   39  A    between atoms: _83  and  _86
REMARK   40  A    between atoms: _89  and  _91
REMARK   41  A    between atoms: _91  and  _92
REMARK   42  A    between atoms: _91  and  _94
REMARK   43  A    between atoms: _97  and  _99
REMARK   44  A    between atoms: _99  and  _100
REMARK   45  A    between atoms: _99  and  _102
REMARK   46  A    between atoms: _102  and  _103
REMARK   47  A    between atoms: _108  and  _109
REMARK   48  A    between atoms: _111  and  _113
REMARK   49  A    between atoms: _113  and  _114
REMARK   50  A    between atoms: _113  and  _116
REMARK   51  A    between atoms: _116  and  _117
REMARK   52  A    between atoms: _117  and  _118
REMARK   53  A    between atoms: _118  and  _119
REMARK   54  A    between atoms: _119  and  _120
REMARK   55  A    between atoms: _124  and  _126
REMARK   56  A    between atoms: _126  and  _127
REMARK   57  A    between atoms: _126  and  _129
REMARK   58  A    between atoms: _132  and  _134
REMARK   59  A    between atoms: _134  and  _135
REMARK   60  A    between atoms: _134  and  _137
REMARK   61  A    between atoms: _140  and  _142
REMARK   62  A    between atoms: _142  and  _143
REMARK   63  A    between atoms: _146  and  _148
REMARK   64  A    between atoms: _148  and  _149
REMARK   65  A    between atoms: _148  and  _151
REMARK   66  A    between atoms: _151  and  _152
REMARK   67  A    between atoms: _155  and  _157
REMARK   68  A    between atoms: _157  and  _158
REMARK   69  A    between atoms: _157  and  _160
REMARK   70  A    between atoms: _160  and  _161
REMARK   71  A    between atoms: _161  and  _162
REMARK   72  A    between atoms: _162  and  _163
REMARK   73  A    between atoms: _163  and  _164
REMARK   74  A    between atoms: _168  and  _170
REMARK   75  A    between atoms: _170  and  _171
REMARK   76  A    between atoms: _170  and  _173
REMARK   77  A    between atoms: _173  and  _174
REMARK   78  A    between atoms: _174  and  _175
REMARK   79  A    between atoms: _175  and  _176
REMARK   80  A    between atoms: _176  and  _177
REMARK   81  A    between atoms: _181  and  _183
REMARK   82  A    between atoms: _183  and  _184
REMARK   83  A    between atoms: _183  and  _186
REMARK   84  A    between atoms: _186  and  _187
REMARK   85  A    between atoms: _190  and  _192
REMARK   86  A    between atoms: _192  and  _193
REMARK   87  A    between atoms: _192  and  _195
REMARK   88  A    between atoms: _198  and  _200
REMARK   89  A    between atoms: _200  and  _201
REMARK   90  A    between atoms: _200  and  _203
REMARK   91  A    between atoms: _203  and  _204
REMARK   92  A    between atoms: _204  and  _205
REMARK   93  A    between atoms: _205  and  _206
REMARK   94  A    between atoms: _206  and  _207
REMARK   95  A    between atoms: _211  and  _213
REMARK   96  A    between atoms: _213  and  _214
REMARK   97  A    between atoms: _213  and  _216
REMARK   98  A    between atoms: _216  and  _217
REMARK   99  A    between atoms: _220  and  _222
REMARK  100  A    between atoms: _222  and  _223
REMARK  101  A    between atoms: _222  and  _225
REMARK  102  A    between atoms: _225  and  _226
REMARK  103  A    between atoms: _229  and  _231
REMARK  104  A    between atoms: _231  and  _232
REMARK  105  A    between atoms: _231  and  _234
REMARK  106  A    between atoms: _234  and  _235
REMARK  107  A    between atoms: _238  and  _240
REMARK  108  A    between atoms: _240  and  _241
REMARK  109  A    between atoms: _240  and  _243
REMARK  110  A    between atoms: _246  and  _248
REMARK  111  A    between atoms: _248  and  _249
REMARK  112  A    between atoms: _248  and  _251
REMARK  113  A    between atoms: _251  and  _252
REMARK  114  A    between atoms: _258  and  _260
REMARK  115  A    between atoms: _260  and  _261
REMARK  116  A    between atoms: _260  and  _263
REMARK  117  A    between atoms: _263  and  _264
REMARK  118  A    between atoms: _264  and  _265
REMARK  119  A    between atoms: _268  and  _270
REMARK  120  A    between atoms: _270  and  _271
REMARK  121  A    between atoms: _270  and  _273
REMARK  122  A    between atoms: _273  and  _274
REMARK  123  A    between atoms: _280  and  _282
REMARK  124  A    between atoms: _282  and  _283
REMARK  125  A    between atoms: _282  and  _285
REMARK  126  A    between atoms: _285  and  _286
REMARK  127  A    between atoms: _289  and  _291
REMARK  128  A    between atoms: _291  and  _292
REMARK  129  A    between atoms: _291  and  _294
REMARK  130  A    between atoms: _294  and  _295
REMARK  131  A    between atoms: _300  and  _302
REMARK  132  A    between atoms: _302  and  _303
REMARK  133  A    between atoms: _302  and  _305
REMARK  134  A    between atoms: _305  and  _306
REMARK  135  A    between atoms: _306  and  _307
REMARK  136  A    between atoms: _312  and  _314
REMARK  137  A    between atoms: _314  and  _315
REMARK  138  A    between atoms: _314  and  _317
REMARK  139  A    between atoms: _317  and  _318
REMARK  140  A    between atoms: _321  and  _323
REMARK  141  A    between atoms: _323  and  _324
REMARK  142  A    between atoms: _323  and  _326
REMARK  143  A    between atoms: _326  and  _327
REMARK  144  A    between atoms: _330  and  _332
REMARK  145  A    between atoms: _332  and  _333
REMARK  146  A    between atoms: _332  and  _335
REMARK  147  A    between atoms: _335  and  _336
REMARK  148  A    between atoms: _336  and  _337
REMARK  149  A    between atoms: _337  and  _338
REMARK  150  A    between atoms: _338  and  _339
REMARK  151  A    between atoms: _343  and  _345
REMARK  152  A    between atoms: _345  and  _346
REMARK  153  A    between atoms: _345  and  _348
REMARK  154  A    between atoms: _348  and  _349
REMARK  155  A    between atoms: _349  and  _350
REMARK  156  A    between atoms: _350  and  _351
REMARK  157  A    between atoms: _351  and  _352
REMARK  158  A    between atoms: _356  and  _358
REMARK  159  A    between atoms: _358  and  _359
REMARK  160  A    between atoms: _358  and  _361
REMARK  161  A    between atoms: _361  and  _362
REMARK  162  A    between atoms: _368  and  _370
REMARK  163  A    between atoms: _370  and  _371
REMARK  164  A    between atoms: _370  and  _373
REMARK  165  A    between atoms: _373  and  _374
REMARK  166  A    between atoms: _377  and  _379
REMARK  167  A    between atoms: _379  and  _380
REMARK  168  A    between atoms: _379  and  _382
REMARK  169  A    between atoms: _382  and  _383
REMARK  170  A    between atoms: _388  and  _390
REMARK  171  A    between atoms: _390  and  _391
REMARK  172  A    between atoms: _390  and  _393
REMARK  173  A    between atoms: _393  and  _394
REMARK  174  A    between atoms: _394  and  _395
REMARK  175  A    between atoms: _395  and  _396
REMARK  176  A    between atoms: _396  and  _397
REMARK  177  A    between atoms: _402  and  _403
REMARK  178  A    between atoms: _408  and  _410
REMARK  179  A    between atoms: _410  and  _411
REMARK  180  A    between atoms: _410  and  _413
REMARK  181  A    between atoms: _413  and  _414
REMARK  182  A    between atoms: _414  and  _415
REMARK  183  A    between atoms: _420  and  _422
REMARK  184  A    between atoms: _422  and  _423
REMARK  185  A    between atoms: _422  and  _425
REMARK  186  A    between atoms: _425  and  _426
REMARK  187  A    between atoms: _431  and  _433
REMARK  188  A    between atoms: _433  and  _434
REMARK  189  A    between atoms: _433  and  _436
REMARK  190  A    between atoms: _436  and  _437
REMARK  191  A    between atoms: _440  and  _442
REMARK  192  A    between atoms: _442  and  _443
REMARK  193  A    between atoms: _442  and  _445
REMARK  194  A    between atoms: _445  and  _446
REMARK  195  A    between atoms: _449  and  _451
REMARK  196  A    between atoms: _451  and  _452
REMARK  197  A    between atoms: _451  and  _454
REMARK  198  A    between atoms: _454  and  _455
REMARK  199  A    between atoms: _458  and  _460
REMARK  200  A    between atoms: _460  and  _461
REMARK  201  A    between atoms: _460  and  _463
REMARK  202  A    between atoms: _463  and  _464
REMARK  203  A    between atoms: _464  and  _465
REMARK  204  A    between atoms: _465  and  _466
REMARK  205  A    between atoms: _466  and  _467
REMARK  206  A    between atoms: _471  and  _473
REMARK  207  A    between atoms: _473  and  _474
REMARK  208  A    between atoms: _473  and  _476
REMARK  209  A    between atoms: _476  and  _477
REMARK  210  A    between atoms: _480  and  _482
REMARK  211  A    between atoms: _482  and  _483
REMARK  212  A    between atoms: _486  and  _488
REMARK  213  A    between atoms: _488  and  _489
REMARK  214  A    between atoms: _488  and  _491
REMARK  215  A    between atoms: _491  and  _492
REMARK  216  A    between atoms: _495  and  _497
REMARK  217  A    between atoms: _497  and  _498
REMARK  218  A    between atoms: _497  and  _500
REMARK  219  A    between atoms: _500  and  _501
REMARK  220  A    between atoms: _507  and  _509
REMARK  221  A    between atoms: _509  and  _510
REMARK  222  A    between atoms: _509  and  _512
REMARK  223  A    between atoms: _512  and  _513
REMARK  224  A    between atoms: _516  and  _518
REMARK  225  A    between atoms: _518  and  _519
REMARK  226  A    between atoms: _518  and  _521
REMARK  227  A    between atoms: _521  and  _522
REMARK                            x       y       z     vdW  Elec       q    Type
REMARK                         _______ _______ _______ _____ _____    ______ ____
ROOT
ATOM      1  C   LEU A   4      33.068  29.338  31.266  0.00  0.00    +0.241 C 
ATOM      2  O   LEU A   4      32.882  28.135  31.416  0.00  0.00    -0.273 OA
ATOM      3  N   LYS A   5      33.799  29.844  30.285  0.00  0.00    -0.297 N 
ATOM      4  H   LYS A   5      33.961  30.871  30.246  0.00  0.00    +0.150 HD
ENDROOT
BRANCH   3   5
ATOM      5  CA  LYS A   5      34.382  28.987  29.258  0.00  0.00    +0.149 C 
BRANCH   5   6
ATOM      6  C   LYS A   5      35.883  28.816  29.450  0.00  0.00    +0.241 C 
ATOM      7  N   LYS A   6      36.300  27.568  29.625  0.00  0.00    -0.297 N 
ATOM      8  H   LYS A   6      35.599  26.801  29.671  0.00  0.00    +0.150 HD
ATOM      9  O   LYS A   5      36.651  29.790  29.378  0.00  0.00    -0.273 OA
BRANCH   7  10
ATOM     10  CA  LYS A   6      37.716  27.245  29.755  0.00  0.00    +0.149 C 
BRANCH  10  11
ATOM     11  C   LYS A   6      38.236  26.635  28.457  0.00  0.00    +0.241 C 
ATOM     12  O   LYS A   6      37.819  25.541  28.057  0.00  0.00    -0.273 OA
ATOM     13  N   ILE A   7      39.127  27.351  27.786  0.00  0.00    -0.298 N 
ATOM     14  H   ILE A   7      39.570  28.186  28.221  0.00  0.00    +0.150 HD
BRANCH  13  15
ATOM     15  CA  ILE A   7      39.476  26.950  26.430  0.00  0.00    +0.137 C 
BRANCH  15  16
ATOM     16  CB  ILE A   7      39.861  28.133  25.550  0.00  0.00    +0.026 C 
ATOM     17  CG2 ILE A   7      40.672  27.637  24.352  0.00  0.00    +0.002 C 
BRANCH  16  18
ATOM     18  CG1 ILE A   7      38.583  28.828  25.079  0.00  0.00    +0.002 C 
ATOM     19  CD1 ILE A   7      38.699  30.333  25.025  0.00  0.00    +0.000 C 
ENDBRANCH  16  18
ENDBRANCH  15  16
BRANCH  15  20
ATOM     20  C   ILE A   7      40.566  25.899  26.439  0.00  0.00    +0.227 C 
ATOM     21  O   ILE A   7      41.555  26.024  27.168  0.00  0.00    -0.286 OA
ENDBRANCH  15  20
ENDBRANCH  13  15
ENDBRANCH  10  11
BRANCH  10  22
ATOM     22  CB  LYS A   6      37.974  26.265  30.909  0.00  0.00    +0.029 C 
BRANCH  22  23
ATOM     23  CG  LYS A   6      36.755  25.846  31.714  0.00  0.00    +0.000 C 
BRANCH  23  24
ATOM     24  CD  LYS A   6      37.033  24.537  32.431  0.00  0.00    -0.024 C 
BRANCH  24  25
ATOM     25  CE  LYS A   6      36.656  24.607  33.903  0.00  0.00    -0.086 C 
BRANCH  25  26
ATOM     26  NZ  LYS A   6      36.727  23.264  34.555  0.00  0.00    +0.380 N 
ATOM     27  HZ1 LYS A   6      36.463  23.352  35.557  0.00  0.00    -0.089 HD
ATOM     28  HZ2 LYS A   6      37.697  22.895  34.482  0.00  0.00    -0.089 HD
ATOM     29  HZ3 LYS A   6      36.070  22.613  34.078  0.00  0.00    -0.089 HD
ENDBRANCH  25  26
ENDBRANCH  24  25
ENDBRANCH  23  24
ENDBRANCH  22  23
ENDBRANCH  10  22
ENDBRANCH   7  10
ENDBRANCH   5   6
BRANCH   5  30
ATOM     30  CB  LYS A   5      34.112  29.566  27.866  0.00  0.00    +0.029 C 
BRANCH  30  31
ATOM     31  CG  LYS A   5      34.407  28.619  26.745  0.00  0.00    +0.000 C 
BRANCH  31  32
ATOM     32  CD  LYS A   5      34.103  29.233  25.406  0.00  0.00    -0.024 C 
BRANCH  32  33
ATOM     33  CE  LYS A   5      34.115  28.178  24.306  0.00  0.00    -0.086 C 
BRANCH  33  34
ATOM     34  NZ  LYS A   5      33.279  28.619  23.165  0.00  0.00    +0.380 N 
ATOM     35  HZ1 LYS A   5      32.301  28.763  23.489  0.00  0.00    -0.089 HD
ATOM     36  HZ2 LYS A   5      33.655  29.511  22.786  0.00  0.00    -0.089 HD
ATOM     37  HZ3 LYS A   5      33.296  27.891  22.423  0.00  0.00    -0.089 HD
ENDBRANCH  33  34
ENDBRANCH  32  33
ENDBRANCH  31  32
ENDBRANCH  30  31
ENDBRANCH   5  30
ENDBRANCH   3   5
BRANCH   1  38
ATOM     38  CA  LEU A   4      32.598  30.314  32.324  0.00  0.00    +0.149 C 
BRANCH  38  40
ATOM     39  C   ALA A   3      30.496  31.435  31.771  0.00  0.00    +0.241 C 
ATOM     40  N   LEU A   4      31.138  30.399  32.300  0.00  0.00    -0.297 N 
ATOM     41  H   LEU A   4      30.583  29.621  32.711  0.00  0.00    +0.150 HD
ATOM     42  O   ALA A   3      31.095  32.324  31.170  0.00  0.00    -0.273 OA
BRANCH  39  43
ATOM     43  CA  ALA A   3      28.964  31.388  31.879  0.00  0.00    +0.149 C 
ATOM     44  CB  ALA A   3      28.249  31.329  30.498  0.00  0.00    +0.031 C 
BRANCH  43  47
ATOM     45  C   VAL A   2      28.291  32.535  33.918  0.00  0.00    +0.241 C 
ATOM     46  O   VAL A   2      28.121  31.481  34.536  0.00  0.00    -0.273 OA
ATOM     47  N   ALA A   3      28.533  32.567  32.613  0.00  0.00    -0.297 N 
ATOM     48  H   ALA A   3      28.411  33.463  32.100  0.00  0.00    +0.150 HD
BRANCH  45  49
ATOM     49  CA  VAL A   2      28.190  33.903  34.641  0.00  0.00    +0.148 C 
BRANCH  49  52
ATOM     50  C   VAL A   1      26.658  34.494  36.489  0.00  0.00    +0.238 C 
ATOM     51  O   VAL A   1      26.254  35.528  35.939  0.00  0.00    -0.274 OA
ATOM     52  N   VAL A   2      27.489  33.637  35.900  0.00  0.00    -0.297 N 
ATOM     53  H   VAL A   2      27.651  32.720  36.363  0.00  0.00    +0.150 HD
BRANCH  50  54
ATOM     54  CA  VAL A   1      26.448  34.248  37.977  0.00  0.00    +0.145 C 
BRANCH  54  55
ATOM     55  CB  VAL A   1      25.279  33.281  38.279  0.00  0.00    +0.025 C 
ATOM     56  CG2 VAL A   1      24.533  33.673  39.569  0.00  0.00    +0.002 C 
ATOM     57  CG1 VAL A   1      24.354  33.066  37.058  0.00  0.00    +0.002 C 
ENDBRANCH  54  55
BRANCH  54  58
ATOM     58  N   VAL A   1      26.367  35.504  38.697  0.00  0.00    -0.238 NA
ATOM     59  H   VAL A   1      25.452  35.995  38.751  0.00  0.00    +0.142 HD
ENDBRANCH  54  58
ENDBRANCH  50  54
ENDBRANCH  49  52
BRANCH  49  60
ATOM     60  CB  VAL A   2      29.622  34.487  34.869  0.00  0.00    +0.027 C 
ATOM     61  CG2 VAL A   2      30.440  33.561  35.735  0.00  0.00    +0.002 C 
ATOM     62  CG1 VAL A   2      29.575  35.882  35.501  0.00  0.00    +0.002 C 
ENDBRANCH  49  60
ENDBRANCH  45  49
ENDBRANCH  43  47
ENDBRANCH  39  43
ENDBRANCH  38  40
BRANCH  38  63
ATOM     63  CB  LEU A   4      33.083  29.808  33.688  0.00  0.00    +0.029 C 
BRANCH  63  64
ATOM     64  CG  LEU A   4      34.398  30.279  34.324  0.00  0.00    +0.002 C 
ATOM     65  CD2 LEU A   4      35.311  29.091  34.446  0.00  0.00    +0.000 C 
ATOM     66  CD1 LEU A   4      35.086  31.460  33.638  0.00  0.00    +0.000 C 
ENDBRANCH  63  64
ENDBRANCH  38  63
ENDBRANCH   1  38
TORSDOF 30
REMARK  Name = ../refined-set-2016/2xnb/2xnb_pocket.pdb
REMARK  227 active torsions:
REMARK  status: ('A' for Active; 'I' for Inactive)
REMARK    1  A    between atoms: _1  and  _3
REMARK    2  A    between atoms: _3  and  _4
REMARK    3  A    between atoms: _3  and  _6
REMARK    4  A    between atoms: _6  and  _7
REMARK    5  A    between atoms: _7  and  _8
REMARK    6  A    between atoms: _11  and  _13
REMARK    7  A    between atoms: _13  and  _14
REMARK    8  A    between atoms: _13  and  _16
REMARK    9  A    between atoms: _16  and  _17
REMARK   10  A    between atoms: _17  and  _18
REMARK   11  A    between atoms: _18  and  _19
REMARK   12  A    between atoms: _19  and  _20
REMARK   13  A    between atoms: _24  and  _26
REMARK   14  A    between atoms: _26  and  _27
REMARK   15  A    between atoms: _26  and  _29
REMARK   16  A    between atoms: _29  and  _30
REMARK   17  A    between atoms: _33  and  _35
REMARK   18  A    between atoms: _35  and  _36
REMARK   19  A    between atoms: _38  and  _40
REMARK   20  A    between atoms: _40  and  _41
REMARK   21  A    between atoms: _40  and  _43
REMARK   22  A    between atoms: _43  and  _44
REMARK   23  A    between atoms: _44  and  _45
REMARK   24  A    between atoms: _48  and  _50
REMARK   25  A    between atoms: _50  and  _51
REMARK   26  A    between atoms: _53  and  _55
REMARK   27  A    between atoms: _55  and  _56
REMARK   28  A    between atoms: _55  and  _58
REMARK   29  A    between atoms: _58  and  _59
REMARK   30  A    between atoms: _62  and  _64
REMARK   31  A    between atoms: _64  and  _65
REMARK   32  A    between atoms: _64  and  _67
REMARK   33  A    between atoms: _67  and  _68
REMARK   34  A    between atoms: _73  and  _74
REMARK   35  A    between atoms: _76  and  _78
REMARK   36  A    between atoms: _78  and  _79
REMARK   37  A    between atoms: _81  and  _83
REMARK   38  A    between atoms: _83  and  _84
REMARK   39  A    between atoms: _83  and  _86
REMARK   40  A    between atoms: _89  and  _91
REMARK   41  A    between atoms: _91  and  _92
REMARK   42  A    between atoms: _91  and  _94
REMARK   43  A    between atoms: _97  and  _99
REMARK   44  A    between atoms: _99  and  _100
REMARK   45  A    between atoms: _99  and  _102
REMARK   46  A    between atoms: _102  and  _103
REMARK   47  A    between atoms: _108  and  _109
REMARK   48  A    between atoms: _111  and  _113
REMARK   49  A    between atoms: _113  and  _114
REMARK   50  A    between atoms: _113  and  _116
REMARK   51  A    between atoms: _116  and  _117
REMARK   52  A    between atoms: _117  and  _118
REMARK   53  A    between atoms: _118  and  _119
REMARK   54  A    between atoms: _119  and  _120
REMARK   55  A    between atoms: _124  and  _126
REMARK   56  A    between atoms: _126  and  _127
REMARK   57  A    between atoms: _126  and  _129
REMARK   58  A    between atoms: _132  and  _134
REMARK   59  A    between atoms: _134  and  _135
REMARK   60  A    between atoms: _134  and  _137
REMARK   61  A    between atoms: _140  and  _142
REMARK   62  A    between atoms: _142  and  _143
REMARK   63  A    between atoms: _146  and  _148
REMARK   64  A    between atoms: _148  and  _149
REMARK   65  A    between atoms: _148  and  _151
REMARK   66  A    between atoms: _151  and  _152
REMARK   67  A    between atoms: _155  and  _157
REMARK   68  A    between atoms: _157  and  _158
REMARK   69  A    between atoms: _157  and  _160
REMARK   70  A    between atoms: _160  and  _161
REMARK   71  A    between atoms: _161  and  _162
REMARK   72  A    between atoms: _162  and  _163
REMARK   73  A    between atoms: _163  and  _164
REMARK   74  A    between atoms: _168  and  _170
REMARK   75  A    between atoms: _170  and  _171
REMARK   76  A    between atoms: _170  and  _173
REMARK   77  A    between atoms: _173  and  _174
REMARK   78  A    between atoms: _174  and  _175
REMARK   79  A    between atoms: _175  and  _176
REMARK   80  A    between atoms: _176  and  _177
REMARK   81  A    between atoms: _181  and  _183
REMARK   82  A    between atoms: _183  and  _184
REMARK   83  A    between atoms: _183  and  _186
REMARK   84  A    between atoms: _186  and  _187
REMARK   85  A    between atoms: _190  and  _192
REMARK   86  A    between atoms: _192  and  _193
REMARK   87  A    between atoms: _192  and  _195
REMARK   88  A    between atoms: _198  and  _200
REMARK   89  A    between atoms: _200  and  _201
REMARK   90  A    between atoms: _200  and  _203
REMARK   91  A    between atoms: _203  and  _204
REMARK   92  A    between atoms: _204  and  _205
REMARK   93  A    between atoms: _205  and  _206
REMARK   94  A    between atoms: _206  and  _207
REMARK   95  A    between atoms: _211  and  _213
REMARK   96  A    between atoms: _213  and  _214
REMARK   97  A    between atoms: _213  and  _216
REMARK   98  A    between atoms: _216  and  _217
REMARK   99  A    between atoms: _220  and  _222
REMARK  100  A    between atoms: _222  and  _223
REMARK  101  A    between atoms: _222  and  _225
REMARK  102  A    between atoms: _225  and  _226
REMARK  103  A    between atoms: _229  and  _231
REMARK  104  A    between atoms: _231  and  _232
REMARK  105  A    between atoms: _231  and  _234
REMARK  106  A    between atoms: _234  and  _235
REMARK  107  A    between atoms: _238  and  _240
REMARK  108  A    between atoms: _240  and  _241
REMARK  109  A    between atoms: _240  and  _243
REMARK  110  A    between atoms: _246  and  _248
REMARK  111  A    between atoms: _248  and  _249
REMARK  112  A    between atoms: _248  and  _251
REMARK  113  A    between atoms: _251  and  _252
REMARK  114  A    between atoms: _258  and  _260
REMARK  115  A    between atoms: _260  and  _261
REMARK  116  A    between atoms: _260  and  _263
REMARK  117  A    between atoms: _263  and  _264
REMARK  118  A    between atoms: _264  and  _265
REMARK  119  A    between atoms: _268  and  _270
REMARK  120  A    between atoms: _270  and  _271
REMARK  121  A    between atoms: _270  and  _273
REMARK  122  A    between atoms: _273  and  _274
REMARK  123  A    between atoms: _280  and  _282
REMARK  124  A    between atoms: _282  and  _283
REMARK  125  A    between atoms: _282  and  _285
REMARK  126  A    between atoms: _285  and  _286
REMARK  127  A    between atoms: _289  and  _291
REMARK  128  A    between atoms: _291  and  _292
REMARK  129  A    between atoms: _291  and  _294
REMARK  130  A    between atoms: _294  and  _295
REMARK  131  A    between atoms: _300  and  _302
REMARK  132  A    between atoms: _302  and  _303
REMARK  133  A    between atoms: _302  and  _305
REMARK  134  A    between atoms: _305  and  _306
REMARK  135  A    between atoms: _306  and  _307
REMARK  136  A    between atoms: _312  and  _314
REMARK  137  A    between atoms: _314  and  _315
REMARK  138  A    between atoms: _314  and  _317
REMARK  139  A    between atoms: _317  and  _318
REMARK  140  A    between atoms: _321  and  _323
REMARK  141  A    between atoms: _323  and  _324
REMARK  142  A    between atoms: _323  and  _326
REMARK  143  A    between atoms: _326  and  _327
REMARK  144  A    between atoms: _330  and  _332
REMARK  145  A    between atoms: _332  and  _333
REMARK  146  A    between atoms: _332  and  _335
REMARK  147  A    between atoms: _335  and  _336
REMARK  148  A    between atoms: _336  and  _337
REMARK  149  A    between atoms: _337  and  _338
REMARK  150  A    between atoms: _338  and  _339
REMARK  151  A    between atoms: _343  and  _345
REMARK  152  A    between atoms: _345  and  _346
REMARK  153  A    between atoms: _345  and  _348
REMARK  154  A    between atoms: _348  and  _349
REMARK  155  A    between atoms: _349  and  _350
REMARK  156  A    between atoms: _350  and  _351
REMARK  157  A    between atoms: _351  and  _352
REMARK  158  A    between atoms: _356  and  _358
REMARK  159  A    between atoms: _358  and  _359
REMARK  160  A    between atoms: _358  and  _361
REMARK  161  A    between atoms: _361  and  _362
REMARK  162  A    between atoms: _368  and  _370
REMARK  163  A    between atoms: _370  and  _371
REMARK  164  A    between atoms: _370  and  _373
REMARK  165  A    between atoms: _373  and  _374
REMARK  166  A    between atoms: _377  and  _379
REMARK  167  A    between atoms: _379  and  _380
REMARK  168  A    between atoms: _379  and  _382
REMARK  169  A    between atoms: _382  and  _383
REMARK  170  A    between atoms: _388  and  _390
REMARK  171  A    between atoms: _390  and  _391
REMARK  172  A    between atoms: _390  and  _393
REMARK  173  A    between atoms: _393  and  _394
REMARK  174  A    between atoms: _394  and  _395
REMARK  175  A    between atoms: _395  and  _396
REMARK  176  A    between atoms: _396  and  _397
REMARK  177  A    between atoms: _402  and  _403
REMARK  178  A    between atoms: _408  and  _410
REMARK  179  A    between atoms: _410  and  _411
REMARK  180  A    between atoms: _410  and  _413
REMARK  181  A    between atoms: _413  and  _414
REMARK  182  A    between atoms: _414  and  _415
REMARK  183  A    between atoms: _420  and  _422
REMARK  184  A    between atoms: _422  and  _423
REMARK  185  A    between atoms: _422  and  _425
REMARK  186  A    between atoms: _425  and  _426
REMARK  187  A    between atoms: _431  and  _433
REMARK  188  A    between atoms: _433  and  _434
REMARK  189  A    between atoms: _433  and  _436
REMARK  190  A    between atoms: _436  and  _437
REMARK  191  A    between atoms: _440  and  _442
REMARK  192  A    between atoms: _442  and  _443
REMARK  193  A    between atoms: _442  and  _445
REMARK  194  A    between atoms: _445  and  _446
REMARK  195  A    between atoms: _449  and  _451
REMARK  196  A    between atoms: _451  and  _452
REMARK  197  A    between atoms: _451  and  _454
REMARK  198  A    between atoms: _454  and  _455
REMARK  199  A    between atoms: _458  and  _460
REMARK  200  A    between atoms: _460  and  _461
REMARK  201  A    between atoms: _460  and  _463
REMARK  202  A    between atoms: _463  and  _464
REMARK  203  A    between atoms: _464  and  _465
REMARK  204  A    between atoms: _465  and  _466
REMARK  205  A    between atoms: _466  and  _467
REMARK  206  A    between atoms: _471  and  _473
REMARK  207  A    between atoms: _473  and  _474
REMARK  208  A    between atoms: _473  and  _476
REMARK  209  A    between atoms: _476  and  _477
REMARK  210  A    between atoms: _480  and  _482
REMARK  211  A    between atoms: _482  and  _483
REMARK  212  A    between atoms: _486  and  _488
REMARK  213  A    between atoms: _488  and  _489
REMARK  214  A    between atoms: _488  and  _491
REMARK  215  A    between atoms: _491  and  _492
REMARK  216  A    between atoms: _495  and  _497
REMARK  217  A    between atoms: _497  and  _498
REMARK  218  A    between atoms: _497  and  _500
REMARK  219  A    between atoms: _500  and  _501
REMARK  220  A    between atoms: _507  and  _509
REMARK  221  A    between atoms: _509  and  _510
REMARK  222  A    between atoms: _509  and  _512
REMARK  223  A    between atoms: _512  and  _513
REMARK  224  A    between atoms: _516  and  _518
REMARK  225  A    between atoms: _518  and  _519
REMARK  226  A    between atoms: _518  and  _521
REMARK  227  A    between atoms: _521  and  _522
REMARK                            x       y       z     vdW  Elec       q    Type
REMARK                         _______ _______ _______ _____ _____    ______ ____
ROOT
ATOM      1  C   LYS A   2      29.699  39.170  27.140  0.00  0.00    +0.241 C 
ATOM      2  O   LYS A   2      29.512  38.363  28.057  0.00  0.00    -0.273 OA
ATOM      3  N   LEU A   3      30.866  39.286  26.510  0.00  0.00    -0.297 N 
ATOM      4  H   LEU A   3      30.882  39.712  25.561  0.00  0.00    +0.150 HD
ENDROOT
BRANCH   3   5
ATOM      5  CA  LEU A   3      32.123  38.838  27.100  0.00  0.00    +0.149 C 
BRANCH   5   6
ATOM      6  C   LEU A   3      32.576  39.756  28.233  0.00  0.00    +0.241 C 
ATOM      7  N   LEU A   4      32.569  39.221  29.441  0.00  0.00    -0.298 N 
ATOM      8  H   LEU A   4      32.505  38.188  29.544  0.00  0.00    +0.150 HD
ATOM      9  O   LEU A   3      32.864  40.937  28.036  0.00  0.00    -0.273 OA
BRANCH   7  10
ATOM     10  CA  LEU A   4      32.649  40.056  30.627  0.00  0.00    +0.137 C 
BRANCH  10  11
ATOM     11  C   LEU A   4      34.123  40.275  30.956  0.00  0.00    +0.227 C 
ATOM     12  O   LEU A   4      34.565  41.404  31.110  0.00  0.00    -0.286 OA
ENDBRANCH  10  11
BRANCH  10  13
ATOM     13  CB  LEU A   4      31.931  39.370  31.777  0.00  0.00    +0.028 C 
BRANCH  13  14
ATOM     14  CG  LEU A   4      30.593  39.882  32.308  0.00  0.00    +0.002 C 
ATOM     15  CD2 LEU A   4      29.730  38.696  32.642  0.00  0.00    +0.000 C 
ATOM     16  CD1 LEU A   4      29.857  40.887  31.453  0.00  0.00    +0.000 C 
ENDBRANCH  13  14
ENDBRANCH  10  13
ENDBRANCH   7  10
ENDBRANCH   5   6
BRANCH   5  17
ATOM     17  CB  LEU A   3      33.209  38.749  26.040  0.00  0.00    +0.029 C 
BRANCH  17  18
ATOM     18  CG  LEU A   3      34.542  38.139  26.454  0.00  0.00    +0.002 C 
ATOM     19  CD2 LEU A   3      34.407  37.043  27.491  0.00  0.00    +0.000 C 
ATOM     20  CD1 LEU A   3      35.132  37.611  25.206  0.00  0.00    +0.000 C 
ENDBRANCH  17  18
ENDBRANCH   5  17
ENDBRANCH   3   5
BRANCH   1  21
ATOM     21  CA  LYS A   2      28.530  39.931  26.522  0.00  0.00    +0.149 C 
BRANCH  21  23
ATOM     22  C   VAL A   1      27.669  38.259  25.005  0.00  0.00    +0.238 C 
ATOM     23  N   LYS A   2      27.494  38.993  26.098  0.00  0.00    -0.297 N 
ATOM     24  H   LYS A   2      26.619  38.900  26.652  0.00  0.00    +0.150 HD
ATOM     25  O   VAL A   1      28.783  38.037  24.520  0.00  0.00    -0.274 OA
BRANCH  22  26
ATOM     26  CA  VAL A   1      26.421  37.560  24.457  0.00  0.00    +0.145 C 
BRANCH  26  27
ATOM     27  CB  VAL A   1      26.601  36.060  24.680  0.00  0.00    +0.025 C 
ATOM     28  CG2 VAL A   1      27.190  35.768  26.045  0.00  0.00    +0.002 C 
ATOM     29  CG1 VAL A   1      25.247  35.412  24.565  0.00  0.00    +0.002 C 
ENDBRANCH  26  27
BRANCH  26  30
ATOM     30  N   VAL A   1      26.169  37.880  23.052  0.00  0.00    -0.238 NA
ATOM     31  H   VAL A   1      26.123  37.122  22.341  0.00  0.00    +0.142 HD
ENDBRANCH  26  30
ENDBRANCH  22  26
ENDBRANCH  21  23
BRANCH  21  32
ATOM     32  CB  LYS A   2      27.970  40.986  27.482  0.00  0.00    +0.029 C 
BRANCH  32  33
ATOM     33  CG  LYS A   2      29.035  41.587  28.393  0.00  0.00    +0.000 C 
BRANCH  33  34
ATOM     34  CD  LYS A   2      29.546  42.904  27.870  0.00  0.00    -0.024 C 
BRANCH  34  35
ATOM     35  CE  LYS A   2      30.103  43.818  28.980  0.00  0.00    -0.086 C 
BRANCH  35  36
ATOM     36  NZ  LYS A   2      31.072  44.793  28.385  0.00  0.00    +0.380 N 
ATOM     37  HZ1 LYS A   2      31.447  45.409  29.135  0.00  0.00    -0.089 HD
ATOM     38  HZ2 LYS A   2      31.854  44.273  27.938  0.00  0.00    -0.089 HD
ATOM     39  HZ3 LYS A   2      30.585  45.371  27.671  0.00  0.00    -0.089 HD
ENDBRANCH  35  36
ENDBRANCH  34  35
ENDBRANCH  33  34
ENDBRANCH  32  33
ENDBRANCH  21  32
ENDBRANCH   1  21
TORSDOF 18
REMARK  Name = ../refined-set-2016/2xnb/2xnb_pocket.pdb
REMARK  227 active torsions:
REMARK  status: ('A' for Active; 'I' for Inactive)
REMARK    1  A    between atoms: _1  and  _3
REMARK    2  A    between atoms: _3  and  _4
REMARK    3  A    between atoms: _3  and  _6
REMARK    4  A    between atoms: _6  and  _7
REMARK    5  A    between atoms: _7  and  _8
REMARK    6  A    between atoms: _11  and  _13
REMARK    7  A    between atoms: _13  and  _14
REMARK    8  A    between atoms: _13  and  _16
REMARK    9  A    between atoms: _16  and  _17
REMARK   10  A    between atoms: _17  and  _18
REMARK   11  A    between atoms: _18  and  _19
REMARK   12  A    between atoms: _19  and  _20
REMARK   13  A    between atoms: _24  and  _26
REMARK   14  A    between atoms: _26  and  _27
REMARK   15  A    between atoms: _26  and  _29
REMARK   16  A    between atoms: _29  and  _30
REMARK   17  A    between atoms: _33  and  _35
REMARK   18  A    between atoms: _35  and  _36
REMARK   19  A    between atoms: _38  and  _40
REMARK   20  A    between atoms: _40  and  _41
REMARK   21  A    between atoms: _40  and  _43
REMARK   22  A    between atoms: _43  and  _44
REMARK   23  A    between atoms: _44  and  _45
REMARK   24  A    between atoms: _48  and  _50
REMARK   25  A    between atoms: _50  and  _51
REMARK   26  A    between atoms: _53  and  _55
REMARK   27  A    between atoms: _55  and  _56
REMARK   28  A    between atoms: _55  and  _58
REMARK   29  A    between atoms: _58  and  _59
REMARK   30  A    between atoms: _62  and  _64
REMARK   31  A    between atoms: _64  and  _65
REMARK   32  A    between atoms: _64  and  _67
REMARK   33  A    between atoms: _67  and  _68
REMARK   34  A    between atoms: _73  and  _74
REMARK   35  A    between atoms: _76  and  _78
REMARK   36  A    between atoms: _78  and  _79
REMARK   37  A    between atoms: _81  and  _83
REMARK   38  A    between atoms: _83  and  _84
REMARK   39  A    between atoms: _83  and  _86
REMARK   40  A    between atoms: _89  and  _91
REMARK   41  A    between atoms: _91  and  _92
REMARK   42  A    between atoms: _91  and  _94
REMARK   43  A    between atoms: _97  and  _99
REMARK   44  A    between atoms: _99  and  _100
REMARK   45  A    between atoms: _99  and  _102
REMARK   46  A    between atoms: _102  and  _103
REMARK   47  A    between atoms: _108  and  _109
REMARK   48  A    between atoms: _111  and  _113
REMARK   49  A    between atoms: _113  and  _114
REMARK   50  A    between atoms: _113  and  _116
REMARK   51  A    between atoms: _116  and  _117
REMARK   52  A    between atoms: _117  and  _118
REMARK   53  A    between atoms: _118  and  _119
REMARK   54  A    between atoms: _119  and  _120
REMARK   55  A    between atoms: _124  and  _126
REMARK   56  A    between atoms: _126  and  _127
REMARK   57  A    between atoms: _126  and  _129
REMARK   58  A    between atoms: _132  and  _134
REMARK   59  A    between atoms: _134  and  _135
REMARK   60  A    between atoms: _134  and  _137
REMARK   61  A    between atoms: _140  and  _142
REMARK   62  A    between atoms: _142  and  _143
REMARK   63  A    between atoms: _146  and  _148
REMARK   64  A    between atoms: _148  and  _149
REMARK   65  A    between atoms: _148  and  _151
REMARK   66  A    between atoms: _151  and  _152
REMARK   67  A    between atoms: _155  and  _157
REMARK   68  A    between atoms: _157  and  _158
REMARK   69  A    between atoms: _157  and  _160
REMARK   70  A    between atoms: _160  and  _161
REMARK   71  A    between atoms: _161  and  _162
REMARK   72  A    between atoms: _162  and  _163
REMARK   73  A    between atoms: _163  and  _164
REMARK   74  A    between atoms: _168  and  _170
REMARK   75  A    between atoms: _170  and  _171
REMARK   76  A    between atoms: _170  and  _173
REMARK   77  A    between atoms: _173  and  _174
REMARK   78  A    between atoms: _174  and  _175
REMARK   79  A    between atoms: _175  and  _176
REMARK   80  A    between atoms: _176  and  _177
REMARK   81  A    between atoms: _181  and  _183
REMARK   82  A    between atoms: _183  and  _184
REMARK   83  A    between atoms: _183  and  _186
REMARK   84  A    between atoms: _186  and  _187
REMARK   85  A    between atoms: _190  and  _192
REMARK   86  A    between atoms: _192  and  _193
REMARK   87  A    between atoms: _192  and  _195
REMARK   88  A    between atoms: _198  and  _200
REMARK   89  A    between atoms: _200  and  _201
REMARK   90  A    between atoms: _200  and  _203
REMARK   91  A    between atoms: _203  and  _204
REMARK   92  A    between atoms: _204  and  _205
REMARK   93  A    between atoms: _205  and  _206
REMARK   94  A    between atoms: _206  and  _207
REMARK   95  A    between atoms: _211  and  _213
REMARK   96  A    between atoms: _213  and  _214
REMARK   97  A    between atoms: _213  and  _216
REMARK   98  A    between atoms: _216  and  _217
REMARK   99  A    between atoms: _220  and  _222
REMARK  100  A    between atoms: _222  and  _223
REMARK  101  A    between atoms: _222  and  _225
REMARK  102  A    between atoms: _225  and  _226
REMARK  103  A    between atoms: _229  and  _231
REMARK  104  A    between atoms: _231  and  _232
REMARK  105  A    between atoms: _231  and  _234
REMARK  106  A    between atoms: _234  and  _235
REMARK  107  A    between atoms: _238  and  _240
REMARK  108  A    between atoms: _240  and  _241
REMARK  109  A    between atoms: _240  and  _243
REMARK  110  A    between atoms: _246  and  _248
REMARK  111  A    between atoms: _248  and  _249
REMARK  112  A    between atoms: _248  and  _251
REMARK  113  A    between atoms: _251  and  _252
REMARK  114  A    between atoms: _258  and  _260
REMARK  115  A    between atoms: _260  and  _261
REMARK  116  A    between atoms: _260  and  _263
REMARK  117  A    between atoms: _263  and  _264
REMARK  118  A    between atoms: _264  and  _265
REMARK  119  A    between atoms: _268  and  _270
REMARK  120  A    between atoms: _270  and  _271
REMARK  121  A    between atoms: _270  and  _273
REMARK  122  A    between atoms: _273  and  _274
REMARK  123  A    between atoms: _280  and  _282
REMARK  124  A    between atoms: _282  and  _283
REMARK  125  A    between atoms: _282  and  _285
REMARK  126  A    between atoms: _285  and  _286
REMARK  127  A    between atoms: _289  and  _291
REMARK  128  A    between atoms: _291  and  _292
REMARK  129  A    between atoms: _291  and  _294
REMARK  130  A    between atoms: _294  and  _295
REMARK  131  A    between atoms: _300  and  _302
REMARK  132  A    between atoms: _302  and  _303
REMARK  133  A    between atoms: _302  and  _305
REMARK  134  A    between atoms: _305  and  _306
REMARK  135  A    between atoms: _306  and  _307
REMARK  136  A    between atoms: _312  and  _314
REMARK  137  A    between atoms: _314  and  _315
REMARK  138  A    between atoms: _314  and  _317
REMARK  139  A    between atoms: _317  and  _318
REMARK  140  A    between atoms: _321  and  _323
REMARK  141  A    between atoms: _323  and  _324
REMARK  142  A    between atoms: _323  and  _326
REMARK  143  A    between atoms: _326  and  _327
REMARK  144  A    between atoms: _330  and  _332
REMARK  145  A    between atoms: _332  and  _333
REMARK  146  A    between atoms: _332  and  _335
REMARK  147  A    between atoms: _335  and  _336
REMARK  148  A    between atoms: _336  and  _337
REMARK  149  A    between atoms: _337  and  _338
REMARK  150  A    between atoms: _338  and  _339
REMARK  151  A    between atoms: _343  and  _345
REMARK  152  A    between atoms: _345  and  _346
REMARK  153  A    between atoms: _345  and  _348
REMARK  154  A    between atoms: _348  and  _349
REMARK  155  A    between atoms: _349  and  _350
REMARK  156  A    between atoms: _350  and  _351
REMARK  157  A    between atoms: _351  and  _352
REMARK  158  A    between atoms: _356  and  _358
REMARK  159  A    between atoms: _358  and  _359
REMARK  160  A    between atoms: _358  and  _361
REMARK  161  A    between atoms: _361  and  _362
REMARK  162  A    between atoms: _368  and  _370
REMARK  163  A    between atoms: _370  and  _371
REMARK  164  A    between atoms: _370  and  _373
REMARK  165  A    between atoms: _373  and  _374
REMARK  166  A    between atoms: _377  and  _379
REMARK  167  A    between atoms: _379  and  _380
REMARK  168  A    between atoms: _379  and  _382
REMARK  169  A    between atoms: _382  and  _383
REMARK  170  A    between atoms: _388  and  _390
REMARK  171  A    between atoms: _390  and  _391
REMARK  172  A    between atoms: _390  and  _393
REMARK  173  A    between atoms: _393  and  _394
REMARK  174  A    between atoms: _394  and  _395
REMARK  175  A    between atoms: _395  and  _396
REMARK  176  A    between atoms: _396  and  _397
REMARK  177  A    between atoms: _402  and  _403
REMARK  178  A    between atoms: _408  and  _410
REMARK  179  A    between atoms: _410  and  _411
REMARK  180  A    between atoms: _410  and  _413
REMARK  181  A    between atoms: _413  and  _414
REMARK  182  A    between atoms: _414  and  _415
REMARK  183  A    between atoms: _420  and  _422
REMARK  184  A    between atoms: _422  and  _423
REMARK  185  A    between atoms: _422  and  _425
REMARK  186  A    between atoms: _425  and  _426
REMARK  187  A    between atoms: _431  and  _433
REMARK  188  A    between atoms: _433  and  _434
REMARK  189  A    between atoms: _433  and  _436
REMARK  190  A    between atoms: _436  and  _437
REMARK  191  A    between atoms: _440  and  _442
REMARK  192  A    between atoms: _442  and  _443
REMARK  193  A    between atoms: _442  and  _445
REMARK  194  A    between atoms: _445  and  _446
REMARK  195  A    between atoms: _449  and  _451
REMARK  196  A    between atoms: _451  and  _452
REMARK  197  A    between atoms: _451  and  _454
REMARK  198  A    between atoms: _454  and  _455
REMARK  199  A    between atoms: _458  and  _460
REMARK  200  A    between atoms: _460  and  _461
REMARK  201  A    between atoms: _460  and  _463
REMARK  202  A    between atoms: _463  and  _464
REMARK  203  A    between atoms: _464  and  _465
REMARK  204  A    between atoms: _465  and  _466
REMARK  205  A    between atoms: _466  and  _467
REMARK  206  A    between atoms: _471  and  _473
REMARK  207  A    between atoms: _473  and  _474
REMARK  208  A    between atoms: _473  and  _476
REMARK  209  A    between atoms: _476  and  _477
REMARK  210  A    between atoms: _480  and  _482
REMARK  211  A    between atoms: _482  and  _483
REMARK  212  A    between atoms: _486  and  _488
REMARK  213  A    between atoms: _488  and  _489
REMARK  214  A    between atoms: _488  and  _491
REMARK  215  A    between atoms: _491  and  _492
REMARK  216  A    between atoms: _495  and  _497
REMARK  217  A    between atoms: _497  and  _498
REMARK  218  A    between atoms: _497  and  _500
REMARK  219  A    between atoms: _500  and  _501
REMARK  220  A    between atoms: _507  and  _509
REMARK  221  A    between atoms: _509  and  _510
REMARK  222  A    between atoms: _509  and  _512
REMARK  223  A    between atoms: _512  and  _513
REMARK  224  A    between atoms: _516  and  _518
REMARK  225  A    between atoms: _518  and  _519
REMARK  226  A    between atoms: _518  and  _521
REMARK  227  A    between atoms: _521  and  _522
REMARK                            x       y       z     vdW  Elec       q    Type
REMARK                         _______ _______ _______ _____ _____    ______ ____
ROOT
ATOM      1  C   HIS A   7      18.852  29.777  30.244  0.00  0.00    +0.241 C 
ATOM      2  O   HIS A   7      18.648  28.718  30.812  0.00  0.00    -0.273 OA
ATOM      3  N   GLN A   8      18.867  29.902  28.917  0.00  0.00    -0.297 N 
ATOM      4  H   GLN A   8      18.911  30.850  28.491  0.00  0.00    +0.150 HD
ENDROOT
BRANCH   3   5
ATOM      5  CA  GLN A   8      18.822  28.729  28.056  0.00  0.00    +0.149 C 
BRANCH   5   6
ATOM      6  C   GLN A   8      19.213  29.009  26.607  0.00  0.00    +0.241 C 
ATOM      7  O   GLN A   8      19.181  30.138  26.139  0.00  0.00    -0.273 OA
ATOM      8  N   ASP A   9      19.439  27.939  25.853  0.00  0.00    -0.297 N 
ATOM      9  H   ASP A   9      19.445  26.998  26.296  0.00  0.00    +0.150 HD
BRANCH   8  10
ATOM     10  CA  ASP A   9      19.678  28.051  24.423  0.00  0.00    +0.160 C 
BRANCH  10  11
ATOM     11  C   ASP A   9      18.385  27.877  23.616  0.00  0.00    +0.241 C 
ATOM     12  O   ASP A   9      17.283  27.667  24.158  0.00  0.00    -0.273 OA
ATOM     13  N   LEU A  10      18.495  28.242  22.350  0.00  0.00    -0.297 N 
ATOM     14  H   LEU A  10      19.424  28.533  21.984  0.00  0.00    +0.150 HD
BRANCH  13  15
ATOM     15  CA  LEU A  10      17.369  28.246  21.476  0.00  0.00    +0.149 C 
BRANCH  15  16
ATOM     16  C   LEU A  10      16.991  26.813  21.199  0.00  0.00    +0.241 C 
ATOM     17  N   LYS A  11      17.984  25.927  21.179  0.00  0.00    -0.297 N 
ATOM     18  H   LYS A  11      18.966  26.255  21.277  0.00  0.00    +0.150 HD
ATOM     19  O   LEU A  10      15.814  26.520  21.028  0.00  0.00    -0.273 OA
BRANCH  17  20
ATOM     20  CA  LYS A  11      17.713  24.493  21.020  0.00  0.00    +0.149 C 
BRANCH  20  21
ATOM     21  C   LYS A  11      16.731  23.945  22.054  0.00  0.00    +0.241 C 
ATOM     22  N   LYS A  12      16.826  24.392  23.302  0.00  0.00    -0.297 N 
ATOM     23  H   LYS A  12      17.520  25.126  23.549  0.00  0.00    +0.150 HD
ATOM     24  O   LYS A  11      15.877  23.088  21.732  0.00  0.00    -0.273 OA
BRANCH  22  25
ATOM     25  CA  LYS A  12      15.931  23.831  24.330  0.00  0.00    +0.149 C 
BRANCH  25  26
ATOM     26  C   LYS A  12      14.499  24.346  24.171  0.00  0.00    +0.241 C 
ATOM     27  O   LYS A  12      13.526  23.601  24.324  0.00  0.00    -0.273 OA
ATOM     28  N   PHE A  13      14.392  25.609  23.767  0.00  0.00    -0.298 N 
ATOM     29  H   PHE A  13      15.267  26.158  23.646  0.00  0.00    +0.150 HD
BRANCH  28  30
ATOM     30  CA  PHE A  13      13.124  26.270  23.484  0.00  0.00    +0.141 C 
BRANCH  30  31
ATOM     31  C   PHE A  13      12.459  25.635  22.263  0.00  0.00    +0.227 C 
ATOM     32  O   PHE A  13      11.248  25.395  22.289  0.00  0.00    -0.286 OA
ENDBRANCH  30  31
BRANCH  30  33
ATOM     33  CB  PHE A  13      13.361  27.779  23.289  0.00  0.00    +0.054 C 
BRANCH  33  34
ATOM     34  CG  PHE A  13      12.104  28.604  23.159  0.00  0.00    -0.020 A 
ATOM     35  CD2 PHE A  13      11.171  28.644  24.182  0.00  0.00    -0.004 A 
ATOM     36  CE2 PHE A  13       9.990  29.333  24.053  0.00  0.00    -0.000 A 
ATOM     37  CZ  PHE A  13       9.750  30.092  22.939  0.00  0.00    -0.000 A 
ATOM     38  CE1 PHE A  13      10.713  30.130  21.924  0.00  0.00    -0.000 A 
ATOM     39  CD1 PHE A  13      11.869  29.362  22.028  0.00  0.00    -0.004 A 
ENDBRANCH  33  34
ENDBRANCH  30  33
ENDBRANCH  28  30
ENDBRANCH  25  26
BRANCH  25  40
ATOM     40  CB  LYS A  12      16.448  24.102  25.740  0.00  0.00    +0.029 C 
BRANCH  40  41
ATOM     41  CG  LYS A  12      15.773  23.203  26.801  0.00  0.00    +0.000 C 
BRANCH  41  42
ATOM     42  CD  LYS A  12      16.275  23.477  28.217  0.00  0.00    -0.024 C 
BRANCH  42  43
ATOM     43  CE  LYS A  12      15.775  24.815  28.741  0.00  0.00    -0.086 C 
BRANCH  43  44
ATOM     44  NZ  LYS A  12      15.241  24.703  30.132  0.00  0.00    +0.380 N 
ATOM     45  HZ1 LYS A  12      15.994  24.365  30.765  0.00  0.00    -0.089 HD
ATOM     46  HZ2 LYS A  12      14.911  25.636  30.451  0.00  0.00    -0.089 HD
ATOM     47  HZ3 LYS A  12      14.448  24.030  30.144  0.00  0.00    -0.089 HD
ENDBRANCH  43  44
ENDBRANCH  42  43
ENDBRANCH  41  42
ENDBRANCH  40  41
ENDBRANCH  25  40
ENDBRANCH  22  25
ENDBRANCH  20  21
BRANCH  20  48
ATOM     48  CB  LYS A  11      19.023  23.702  21.070  0.00  0.00    +0.029 C 
BRANCH  48  49
ATOM     49  CG  LYS A  11      18.829  22.216  21.132  0.00  0.00    +0.000 C 
BRANCH  49  50
ATOM     50  CD  LYS A  11      18.757  21.593  19.755  0.00  0.00    -0.024 C 
BRANCH  50  51
ATOM     51  CE  LYS A  11      17.979  20.275  19.774  0.00  0.00    -0.086 C 
BRANCH  51  52
ATOM     52  NZ  LYS A  11      18.625  19.294  20.698  0.00  0.00    +0.380 N 
ATOM     53  HZ1 LYS A  11      18.645  19.687  21.661  0.00  0.00    -0.089 HD
ATOM     54  HZ2 LYS A  11      18.081  18.407  20.696  0.00  0.00    -0.089 HD
ATOM     55  HZ3 LYS A  11      19.597  19.107  20.379  0.00  0.00    -0.089 HD
ENDBRANCH  51  52
ENDBRANCH  50  51
ENDBRANCH  49  50
ENDBRANCH  48  49
ENDBRANCH  20  48
ENDBRANCH  17  20
ENDBRANCH  15  16
BRANCH  15  56
ATOM     56  CB  LEU A  10      17.691  28.976  20.187  0.00  0.00    +0.029 C 
BRANCH  56  57
ATOM     57  CG  LEU A  10      16.568  29.051  19.147  0.00  0.00    +0.002 C 
ATOM     58  CD2 LEU A  10      15.384  29.889  19.618  0.00  0.00    +0.000 C 
ATOM     59  CD1 LEU A  10      17.088  29.484  17.747  0.00  0.00    +0.000 C 
ENDBRANCH  56  57
ENDBRANCH  15  56
ENDBRANCH  13  15
ENDBRANCH  10  11
BRANCH  10  60
ATOM     60  CB  ASP A   9      20.826  27.124  23.966  0.00  0.00    +0.143 C 
BRANCH  60  61
ATOM     61  CG  ASP A   9      20.487  25.641  24.093  0.00  0.00    +0.367 C 
ATOM     62  OD2 ASP A   9      19.335  25.310  24.386  0.00  0.00    -0.246 OA
ATOM     63  OD1 ASP A   9      21.353  24.801  23.805  0.00  0.00    -0.246 OA
ENDBRANCH  60  61
ENDBRANCH  10  60
ENDBRANCH   8  10
ENDBRANCH   5   6
BRANCH   5  64
ATOM     64  CB  GLN A   8      17.438  28.094  28.089  0.00  0.00    +0.039 C 
BRANCH  64  65
ATOM     65  CG  GLN A   8      16.278  29.041  27.834  0.00  0.00    +0.087 C 
BRANCH  65  66
ATOM     66  CD  GLN A   8      14.956  28.290  27.867  0.00  0.00    +0.219 C 
ATOM     67  OE1 GLN A   8      14.218  28.346  28.852  0.00  0.00    -0.275 OA
ATOM     68  NE2 GLN A   8      14.690  27.523  26.814  0.00  0.00    -0.329 N 
ATOM     69 HE21 GLN A   8      13.830  26.939  26.800  0.00  0.00    +0.145 HD
ATOM     70 HE22 GLN A   8      15.342  27.507  26.004  0.00  0.00    +0.145 HD
ENDBRANCH  65  66
ENDBRANCH  64  65
ENDBRANCH   5  64
ENDBRANCH   3   5
BRANCH   1  71
ATOM     71  CA  HIS A   7      19.118  31.016  31.064  0.00  0.00    +0.155 C 
BRANCH  71  73
ATOM     72  C   LEU A   6      20.909  32.266  30.143  0.00  0.00    +0.241 C 
ATOM     73  N   HIS A   7      19.603  32.172  30.330  0.00  0.00    -0.297 N 
ATOM     74  H   HIS A   7      18.950  32.896  29.967  0.00  0.00    +0.150 HD
ATOM     75  O   LEU A   6      21.652  31.292  30.322  0.00  0.00    -0.273 OA
BRANCH  72  76
ATOM     76  CA  LEU A   6      21.494  33.627  29.834  0.00  0.00    +0.149 C 
BRANCH  76  79
ATOM     77  C   PHE A   5      23.367  34.314  31.257  0.00  0.00    +0.241 C 
ATOM     78  O   PHE A   5      22.825  35.385  31.602  0.00  0.00    -0.273 OA
ATOM     79  N   LEU A   6      22.879  33.529  30.284  0.00  0.00    -0.297 N 
ATOM     80  H   LEU A   6      23.506  32.830  29.837  0.00  0.00    +0.150 HD
BRANCH  77  81
ATOM     81  CA  PHE A   5      24.794  33.979  31.747  0.00  0.00    +0.153 C 
BRANCH  81  83
ATOM     82  C   GLU A   4      26.352  35.662  30.844  0.00  0.00    +0.241 C 
ATOM     83  N   PHE A   5      25.544  35.243  31.810  0.00  0.00    -0.297 N 
ATOM     84  H   PHE A   5      25.435  35.839  32.655  0.00  0.00    +0.150 HD
ATOM     85  O   GLU A   4      26.540  35.031  29.813  0.00  0.00    -0.273 OA
BRANCH  82  86
ATOM     86  CA  GLU A   4      27.013  37.034  31.041  0.00  0.00    +0.149 C 
BRANCH  86  89
ATOM     87  C   PHE A   3      29.137  35.953  30.654  0.00  0.00    +0.241 C 
ATOM     88  O   PHE A   3      28.960  35.215  31.627  0.00  0.00    -0.273 OA
ATOM     89  N   GLU A   4      28.326  36.978  30.413  0.00  0.00    -0.297 N 
ATOM     90  H   GLU A   4      28.629  37.741  29.775  0.00  0.00    +0.150 HD
BRANCH  87  91
ATOM     91  CA  PHE A   3      30.278  35.692  29.654  0.00  0.00    +0.153 C 
BRANCH  91  93
ATOM     92  C   VAL A   2      32.558  35.680  30.604  0.00  0.00    +0.241 C 
ATOM     93  N   PHE A   3      31.443  35.022  30.296  0.00  0.00    -0.297 N 
ATOM     94  H   PHE A   3      31.383  34.006  30.511  0.00  0.00    +0.150 HD
ATOM     95  O   VAL A   2      32.778  36.858  30.259  0.00  0.00    -0.273 OA
BRANCH  92  96
ATOM     96  CA  VAL A   2      33.632  34.864  31.301  0.00  0.00    +0.148 C 
BRANCH  96  98
ATOM     97  C   LEU A   1      35.082  33.599  29.869  0.00  0.00    +0.238 C 
ATOM     98  N   VAL A   2      34.718  34.781  30.359  0.00  0.00    -0.297 N 
ATOM     99  H   VAL A   2      35.217  35.644  30.062  0.00  0.00    +0.150 HD
ATOM    100  O   LEU A   1      34.600  32.568  30.289  0.00  0.00    -0.274 OA
BRANCH  97 101
ATOM    101  CA  LEU A   1      36.285  33.545  28.939  0.00  0.00    +0.145 C 
BRANCH 101 102
ATOM    102  N   LEU A   1      37.167  32.488  29.414  0.00  0.00    -0.238 NA
ATOM    103  H   LEU A   1      36.836  31.503  29.364  0.00  0.00    +0.142 HD
ENDBRANCH 101 102
BRANCH 101 104
ATOM    104  CB  LEU A   1      35.874  33.227  27.492  0.00  0.00    +0.026 C 
BRANCH 104 105
ATOM    105  CG  LEU A   1      37.051  33.215  26.504  0.00  0.00    +0.002 C 
ATOM    106  CD2 LEU A   1      37.769  34.552  26.580  0.00  0.00    +0.000 C 
ATOM    107  CD1 LEU A   1      36.616  32.938  25.047  0.00  0.00    +0.000 C 
ENDBRANCH 104 105
ENDBRANCH 101 104
ENDBRANCH  97 101
ENDBRANCH  96  98
BRANCH  96 108
ATOM    108  CB  VAL A   2      34.051  35.528  32.632  0.00  0.00    +0.027 C 
ATOM    109  CG2 VAL A   2      32.958  35.439  33.651  0.00  0.00    +0.002 C 
ATOM    110  CG1 VAL A   2      35.319  34.909  33.179  0.00  0.00    +0.002 C 
ENDBRANCH  96 108
ENDBRANCH  92  96
ENDBRANCH  91  93
BRANCH  91 111
ATOM    111  CB  PHE A   3      29.751  34.822  28.497  0.00  0.00    +0.055 C 
BRANCH 111 112
ATOM    112  CG  PHE A   3      30.799  34.469  27.451  0.00  0.00    -0.020 A 
ATOM    113  CD2 PHE A   3      31.441  33.239  27.480  0.00  0.00    -0.004 A 
ATOM    114  CE2 PHE A   3      32.435  32.934  26.546  0.00  0.00    -0.000 A 
ATOM    115  CZ  PHE A   3      32.632  33.740  25.450  0.00  0.00    -0.000 A 
ATOM    116  CE1 PHE A   3      31.923  34.935  25.351  0.00  0.00    -0.000 A 
ATOM    117  CD1 PHE A   3      30.964  35.249  26.318  0.00  0.00    -0.004 A 
ENDBRANCH 111 112
ENDBRANCH  91 111
ENDBRANCH  87  91
ENDBRANCH  86  89
BRANCH  86 118
ATOM    118  CB  GLU A   4      26.167  38.142  30.407  0.00  0.00    +0.041 C 
BRANCH 118 119
ATOM    119  CG  GLU A   4      25.758  37.902  28.964  0.00  0.00    +0.116 C 
BRANCH 119 120
ATOM    120  CD  GLU A   4      24.771  38.958  28.468  0.00  0.00    +0.365 C 
ATOM    121  OE2 GLU A   4      24.243  39.673  29.334  0.00  0.00    -0.246 OA
ATOM    122  OE1 GLU A   4      24.648  39.193  27.243  0.00  0.00    -0.246 OA
ENDBRANCH 119 120
ENDBRANCH 118 119
ENDBRANCH  86 118
ENDBRANCH  82  86
ENDBRANCH  81  83
BRANCH  81 123
ATOM    123  CB  PHE A   5      24.761  33.330  33.147  0.00  0.00    +0.055 C 
BRANCH 123 124
ATOM    124  CG  PHE A   5      23.958  32.043  33.219  0.00  0.00    -0.020 A 
ATOM    125  CD2 PHE A   5      22.667  32.032  33.698  0.00  0.00    -0.004 A 
ATOM    126  CE2 PHE A   5      21.940  30.864  33.734  0.00  0.00    -0.000 A 
ATOM    127  CZ  PHE A   5      22.503  29.703  33.224  0.00  0.00    -0.000 A 
ATOM    128  CE1 PHE A   5      23.774  29.740  32.690  0.00  0.00    -0.000 A 
ATOM    129  CD1 PHE A   5      24.450  30.924  32.613  0.00  0.00    -0.004 A 
ENDBRANCH 123 124
ENDBRANCH  81 123
ENDBRANCH  77  81
ENDBRANCH  76  79
BRANCH  76 130
ATOM    130  CB  LEU A   6      21.457  33.966  28.332  0.00  0.00    +0.029 C 
BRANCH 130 131
ATOM    131  CG  LEU A   6      21.620  35.467  28.010  0.00  0.00    +0.002 C 
ATOM    132  CD2 LEU A   6      23.043  35.725  27.527  0.00  0.00    +0.000 C 
ATOM    133  CD1 LEU A   6      20.592  35.962  26.982  0.00  0.00    +0.000 C 
ENDBRANCH 130 131
ENDBRANCH  76 130
ENDBRANCH  72  76
ENDBRANCH  71  73
BRANCH  71 134
ATOM    134  CB  HIS A   7      17.924  31.379  31.935  0.00  0.00    +0.076 C 
BRANCH 134 135
ATOM    135  CG  HIS A   7      18.310  31.696  33.346  0.00  0.00    +0.082 A 
ATOM    136  CD2 HIS A   7      18.470  30.892  34.425  0.00  0.00    +0.115 A 
ATOM    137  NE2 HIS A   7      18.922  31.682  35.454  0.00  0.00    -0.221 NA
ATOM    138  CE1 HIS A   7      19.091  32.915  35.006  0.00  0.00    +0.199 A 
ATOM    139  ND1 HIS A   7      18.715  32.955  33.740  0.00  0.00    -0.227 NA
ENDBRANCH 134 135
ENDBRANCH  71 134
ENDBRANCH   1  71
TORSDOF 59
REMARK  Name = ../refined-set-2016/2xnb/2xnb_pocket.pdb
REMARK  227 active torsions:
REMARK  status: ('A' for Active; 'I' for Inactive)
REMARK    1  A    between atoms: _1  and  _3
REMARK    2  A    between atoms: _3  and  _4
REMARK    3  A    between atoms: _3  and  _6
REMARK    4  A    between atoms: _6  and  _7
REMARK    5  A    between atoms: _7  and  _8
REMARK    6  A    between atoms: _11  and  _13
REMARK    7  A    between atoms: _13  and  _14
REMARK    8  A    between atoms: _13  and  _16
REMARK    9  A    between atoms: _16  and  _17
REMARK   10  A    between atoms: _17  and  _18
REMARK   11  A    between atoms: _18  and  _19
REMARK   12  A    between atoms: _19  and  _20
REMARK   13  A    between atoms: _24  and  _26
REMARK   14  A    between atoms: _26  and  _27
REMARK   15  A    between atoms: _26  and  _29
REMARK   16  A    between atoms: _29  and  _30
REMARK   17  A    between atoms: _33  and  _35
REMARK   18  A    between atoms: _35  and  _36
REMARK   19  A    between atoms: _38  and  _40
REMARK   20  A    between atoms: _40  and  _41
REMARK   21  A    between atoms: _40  and  _43
REMARK   22  A    between atoms: _43  and  _44
REMARK   23  A    between atoms: _44  and  _45
REMARK   24  A    between atoms: _48  and  _50
REMARK   25  A    between atoms: _50  and  _51
REMARK   26  A    between atoms: _53  and  _55
REMARK   27  A    between atoms: _55  and  _56
REMARK   28  A    between atoms: _55  and  _58
REMARK   29  A    between atoms: _58  and  _59
REMARK   30  A    between atoms: _62  and  _64
REMARK   31  A    between atoms: _64  and  _65
REMARK   32  A    between atoms: _64  and  _67
REMARK   33  A    between atoms: _67  and  _68
REMARK   34  A    between atoms: _73  and  _74
REMARK   35  A    between atoms: _76  and  _78
REMARK   36  A    between atoms: _78  and  _79
REMARK   37  A    between atoms: _81  and  _83
REMARK   38  A    between atoms: _83  and  _84
REMARK   39  A    between atoms: _83  and  _86
REMARK   40  A    between atoms: _89  and  _91
REMARK   41  A    between atoms: _91  and  _92
REMARK   42  A    between atoms: _91  and  _94
REMARK   43  A    between atoms: _97  and  _99
REMARK   44  A    between atoms: _99  and  _100
REMARK   45  A    between atoms: _99  and  _102
REMARK   46  A    between atoms: _102  and  _103
REMARK   47  A    between atoms: _108  and  _109
REMARK   48  A    between atoms: _111  and  _113
REMARK   49  A    between atoms: _113  and  _114
REMARK   50  A    between atoms: _113  and  _116
REMARK   51  A    between atoms: _116  and  _117
REMARK   52  A    between atoms: _117  and  _118
REMARK   53  A    between atoms: _118  and  _119
REMARK   54  A    between atoms: _119  and  _120
REMARK   55  A    between atoms: _124  and  _126
REMARK   56  A    between atoms: _126  and  _127
REMARK   57  A    between atoms: _126  and  _129
REMARK   58  A    between atoms: _132  and  _134
REMARK   59  A    between atoms: _134  and  _135
REMARK   60  A    between atoms: _134  and  _137
REMARK   61  A    between atoms: _140  and  _142
REMARK   62  A    between atoms: _142  and  _143
REMARK   63  A    between atoms: _146  and  _148
REMARK   64  A    between atoms: _148  and  _149
REMARK   65  A    between atoms: _148  and  _151
REMARK   66  A    between atoms: _151  and  _152
REMARK   67  A    between atoms: _155  and  _157
REMARK   68  A    between atoms: _157  and  _158
REMARK   69  A    between atoms: _157  and  _160
REMARK   70  A    between atoms: _160  and  _161
REMARK   71  A    between atoms: _161  and  _162
REMARK   72  A    between atoms: _162  and  _163
REMARK   73  A    between atoms: _163  and  _164
REMARK   74  A    between atoms: _168  and  _170
REMARK   75  A    between atoms: _170  and  _171
REMARK   76  A    between atoms: _170  and  _173
REMARK   77  A    between atoms: _173  and  _174
REMARK   78  A    between atoms: _174  and  _175
REMARK   79  A    between atoms: _175  and  _176
REMARK   80  A    between atoms: _176  and  _177
REMARK   81  A    between atoms: _181  and  _183
REMARK   82  A    between atoms: _183  and  _184
REMARK   83  A    between atoms: _183  and  _186
REMARK   84  A    between atoms: _186  and  _187
REMARK   85  A    between atoms: _190  and  _192
REMARK   86  A    between atoms: _192  and  _193
REMARK   87  A    between atoms: _192  and  _195
REMARK   88  A    between atoms: _198  and  _200
REMARK   89  A    between atoms: _200  and  _201
REMARK   90  A    between atoms: _200  and  _203
REMARK   91  A    between atoms: _203  and  _204
REMARK   92  A    between atoms: _204  and  _205
REMARK   93  A    between atoms: _205  and  _206
REMARK   94  A    between atoms: _206  and  _207
REMARK   95  A    between atoms: _211  and  _213
REMARK   96  A    between atoms: _213  and  _214
REMARK   97  A    between atoms: _213  and  _216
REMARK   98  A    between atoms: _216  and  _217
REMARK   99  A    between atoms: _220  and  _222
REMARK  100  A    between atoms: _222  and  _223
REMARK  101  A    between atoms: _222  and  _225
REMARK  102  A    between atoms: _225  and  _226
REMARK  103  A    between atoms: _229  and  _231
REMARK  104  A    between atoms: _231  and  _232
REMARK  105  A    between atoms: _231  and  _234
REMARK  106  A    between atoms: _234  and  _235
REMARK  107  A    between atoms: _238  and  _240
REMARK  108  A    between atoms: _240  and  _241
REMARK  109  A    between atoms: _240  and  _243
REMARK  110  A    between atoms: _246  and  _248
REMARK  111  A    between atoms: _248  and  _249
REMARK  112  A    between atoms: _248  and  _251
REMARK  113  A    between atoms: _251  and  _252
REMARK  114  A    between atoms: _258  and  _260
REMARK  115  A    between atoms: _260  and  _261
REMARK  116  A    between atoms: _260  and  _263
REMARK  117  A    between atoms: _263  and  _264
REMARK  118  A    between atoms: _264  and  _265
REMARK  119  A    between atoms: _268  and  _270
REMARK  120  A    between atoms: _270  and  _271
REMARK  121  A    between atoms: _270  and  _273
REMARK  122  A    between atoms: _273  and  _274
REMARK  123  A    between atoms: _280  and  _282
REMARK  124  A    between atoms: _282  and  _283
REMARK  125  A    between atoms: _282  and  _285
REMARK  126  A    between atoms: _285  and  _286
REMARK  127  A    between atoms: _289  and  _291
REMARK  128  A    between atoms: _291  and  _292
REMARK  129  A    between atoms: _291  and  _294
REMARK  130  A    between atoms: _294  and  _295
REMARK  131  A    between atoms: _300  and  _302
REMARK  132  A    between atoms: _302  and  _303
REMARK  133  A    between atoms: _302  and  _305
REMARK  134  A    between atoms: _305  and  _306
REMARK  135  A    between atoms: _306  and  _307
REMARK  136  A    between atoms: _312  and  _314
REMARK  137  A    between atoms: _314  and  _315
REMARK  138  A    between atoms: _314  and  _317
REMARK  139  A    between atoms: _317  and  _318
REMARK  140  A    between atoms: _321  and  _323
REMARK  141  A    between atoms: _323  and  _324
REMARK  142  A    between atoms: _323  and  _326
REMARK  143  A    between atoms: _326  and  _327
REMARK  144  A    between atoms: _330  and  _332
REMARK  145  A    between atoms: _332  and  _333
REMARK  146  A    between atoms: _332  and  _335
REMARK  147  A    between atoms: _335  and  _336
REMARK  148  A    between atoms: _336  and  _337
REMARK  149  A    between atoms: _337  and  _338
REMARK  150  A    between atoms: _338  and  _339
REMARK  151  A    between atoms: _343  and  _345
REMARK  152  A    between atoms: _345  and  _346
REMARK  153  A    between atoms: _345  and  _348
REMARK  154  A    between atoms: _348  and  _349
REMARK  155  A    between atoms: _349  and  _350
REMARK  156  A    between atoms: _350  and  _351
REMARK  157  A    between atoms: _351  and  _352
REMARK  158  A    between atoms: _356  and  _358
REMARK  159  A    between atoms: _358  and  _359
REMARK  160  A    between atoms: _358  and  _361
REMARK  161  A    between atoms: _361  and  _362
REMARK  162  A    between atoms: _368  and  _370
REMARK  163  A    between atoms: _370  and  _371
REMARK  164  A    between atoms: _370  and  _373
REMARK  165  A    between atoms: _373  and  _374
REMARK  166  A    between atoms: _377  and  _379
REMARK  167  A    between atoms: _379  and  _380
REMARK  168  A    between atoms: _379  and  _382
REMARK  169  A    between atoms: _382  and  _383
REMARK  170  A    between atoms: _388  and  _390
REMARK  171  A    between atoms: _390  and  _391
REMARK  172  A    between atoms: _390  and  _393
REMARK  173  A    between atoms: _393  and  _394
REMARK  174  A    between atoms: _394  and  _395
REMARK  175  A    between atoms: _395  and  _396
REMARK  176  A    between atoms: _396  and  _397
REMARK  177  A    between atoms: _402  and  _403
REMARK  178  A    between atoms: _408  and  _410
REMARK  179  A    between atoms: _410  and  _411
REMARK  180  A    between atoms: _410  and  _413
REMARK  181  A    between atoms: _413  and  _414
REMARK  182  A    between atoms: _414  and  _415
REMARK  183  A    between atoms: _420  and  _422
REMARK  184  A    between atoms: _422  and  _423
REMARK  185  A    between atoms: _422  and  _425
REMARK  186  A    between atoms: _425  and  _426
REMARK  187  A    between atoms: _431  and  _433
REMARK  188  A    between atoms: _433  and  _434
REMARK  189  A    between atoms: _433  and  _436
REMARK  190  A    between atoms: _436  and  _437
REMARK  191  A    between atoms: _440  and  _442
REMARK  192  A    between atoms: _442  and  _443
REMARK  193  A    between atoms: _442  and  _445
REMARK  194  A    between atoms: _445  and  _446
REMARK  195  A    between atoms: _449  and  _451
REMARK  196  A    between atoms: _451  and  _452
REMARK  197  A    between atoms: _451  and  _454
REMARK  198  A    between atoms: _454  and  _455
REMARK  199  A    between atoms: _458  and  _460
REMARK  200  A    between atoms: _460  and  _461
REMARK  201  A    between atoms: _460  and  _463
REMARK  202  A    between atoms: _463  and  _464
REMARK  203  A    between atoms: _464  and  _465
REMARK  204  A    between atoms: _465  and  _466
REMARK  205  A    between atoms: _466  and  _467
REMARK  206  A    between atoms: _471  and  _473
REMARK  207  A    between atoms: _473  and  _474
REMARK  208  A    between atoms: _473  and  _476
REMARK  209  A    between atoms: _476  and  _477
REMARK  210  A    between atoms: _480  and  _482
REMARK  211  A    between atoms: _482  and  _483
REMARK  212  A    between atoms: _486  and  _488
REMARK  213  A    between atoms: _488  and  _489
REMARK  214  A    between atoms: _488  and  _491
REMARK  215  A    between atoms: _491  and  _492
REMARK  216  A    between atoms: _495  and  _497
REMARK  217  A    between atoms: _497  and  _498
REMARK  218  A    between atoms: _497  and  _500
REMARK  219  A    between atoms: _500  and  _501
REMARK  220  A    between atoms: _507  and  _509
REMARK  221  A    between atoms: _509  and  _510
REMARK  222  A    between atoms: _509  and  _512
REMARK  223  A    between atoms: _512  and  _513
REMARK  224  A    between atoms: _516  and  _518
REMARK  225  A    between atoms: _518  and  _519
REMARK  226  A    between atoms: _518  and  _521
REMARK  227  A    between atoms: _521  and  _522
REMARK                            x       y       z     vdW  Elec       q    Type
REMARK                         _______ _______ _______ _____ _____    ______ ____
ROOT
ATOM      1  CA  ASP A   1      12.640  21.196  21.775  0.00  0.00    +0.144 C 
ENDROOT
BRANCH   1   2
ATOM      2  N   ASP A   1      13.062  22.418  21.096  0.00  0.00    -0.239 NA
ATOM      3  H   ASP A   1      14.065  22.690  21.139  0.00  0.00    +0.142 HD
ENDBRANCH   1   2
BRANCH   1   4
ATOM      4  C   ASP A   1      11.344  21.335  22.594  0.00  0.00    +0.225 C 
ATOM      5  O   ASP A   1      10.337  20.738  22.199  0.00  0.00    -0.287 OA
ENDBRANCH   1   4
BRANCH   1   6
ATOM      6  CB  ASP A   1      13.794  20.614  22.600  0.00  0.00    +0.139 C 
BRANCH   6   7
ATOM      7  CG  ASP A   1      14.988  20.184  21.738  0.00  0.00    +0.367 C 
ATOM      8  OD2 ASP A   1      16.069  19.887  22.296  0.00  0.00    -0.246 OA
ATOM      9  OD1 ASP A   1      14.883  20.158  20.493  0.00  0.00    -0.246 OA
ENDBRANCH   6   7
ENDBRANCH   1   6
TORSDOF 4
REMARK  Name = ../refined-set-2016/2xnb/2xnb_pocket.pdb
REMARK  227 active torsions:
REMARK  status: ('A' for Active; 'I' for Inactive)
REMARK    1  A    between atoms: _1  and  _3
REMARK    2  A    between atoms: _3  and  _4
REMARK    3  A    between atoms: _3  and  _6
REMARK    4  A    between atoms: _6  and  _7
REMARK    5  A    between atoms: _7  and  _8
REMARK    6  A    between atoms: _11  and  _13
REMARK    7  A    between atoms: _13  and  _14
REMARK    8  A    between atoms: _13  and  _16
REMARK    9  A    between atoms: _16  and  _17
REMARK   10  A    between atoms: _17  and  _18
REMARK   11  A    between atoms: _18  and  _19
REMARK   12  A    between atoms: _19  and  _20
REMARK   13  A    between atoms: _24  and  _26
REMARK   14  A    between atoms: _26  and  _27
REMARK   15  A    between atoms: _26  and  _29
REMARK   16  A    between atoms: _29  and  _30
REMARK   17  A    between atoms: _33  and  _35
REMARK   18  A    between atoms: _35  and  _36
REMARK   19  A    between atoms: _38  and  _40
REMARK   20  A    between atoms: _40  and  _41
REMARK   21  A    between atoms: _40  and  _43
REMARK   22  A    between atoms: _43  and  _44
REMARK   23  A    between atoms: _44  and  _45
REMARK   24  A    between atoms: _48  and  _50
REMARK   25  A    between atoms: _50  and  _51
REMARK   26  A    between atoms: _53  and  _55
REMARK   27  A    between atoms: _55  and  _56
REMARK   28  A    between atoms: _55  and  _58
REMARK   29  A    between atoms: _58  and  _59
REMARK   30  A    between atoms: _62  and  _64
REMARK   31  A    between atoms: _64  and  _65
REMARK   32  A    between atoms: _64  and  _67
REMARK   33  A    between atoms: _67  and  _68
REMARK   34  A    between atoms: _73  and  _74
REMARK   35  A    between atoms: _76  and  _78
REMARK   36  A    between atoms: _78  and  _79
REMARK   37  A    between atoms: _81  and  _83
REMARK   38  A    between atoms: _83  and  _84
REMARK   39  A    between atoms: _83  and  _86
REMARK   40  A    between atoms: _89  and  _91
REMARK   41  A    between atoms: _91  and  _92
REMARK   42  A    between atoms: _91  and  _94
REMARK   43  A    between atoms: _97  and  _99
REMARK   44  A    between atoms: _99  and  _100
REMARK   45  A    between atoms: _99  and  _102
REMARK   46  A    between atoms: _102  and  _103
REMARK   47  A    between atoms: _108  and  _109
REMARK   48  A    between atoms: _111  and  _113
REMARK   49  A    between atoms: _113  and  _114
REMARK   50  A    between atoms: _113  and  _116
REMARK   51  A    between atoms: _116  and  _117
REMARK   52  A    between atoms: _117  and  _118
REMARK   53  A    between atoms: _118  and  _119
REMARK   54  A    between atoms: _119  and  _120
REMARK   55  A    between atoms: _124  and  _126
REMARK   56  A    between atoms: _126  and  _127
REMARK   57  A    between atoms: _126  and  _129
REMARK   58  A    between atoms: _132  and  _134
REMARK   59  A    between atoms: _134  and  _135
REMARK   60  A    between atoms: _134  and  _137
REMARK   61  A    between atoms: _140  and  _142
REMARK   62  A    between atoms: _142  and  _143
REMARK   63  A    between atoms: _146  and  _148
REMARK   64  A    between atoms: _148  and  _149
REMARK   65  A    between atoms: _148  and  _151
REMARK   66  A    between atoms: _151  and  _152
REMARK   67  A    between atoms: _155  and  _157
REMARK   68  A    between atoms: _157  and  _158
REMARK   69  A    between atoms: _157  and  _160
REMARK   70  A    between atoms: _160  and  _161
REMARK   71  A    between atoms: _161  and  _162
REMARK   72  A    between atoms: _162  and  _163
REMARK   73  A    between atoms: _163  and  _164
REMARK   74  A    between atoms: _168  and  _170
REMARK   75  A    between atoms: _170  and  _171
REMARK   76  A    between atoms: _170  and  _173
REMARK   77  A    between atoms: _173  and  _174
REMARK   78  A    between atoms: _174  and  _175
REMARK   79  A    between atoms: _175  and  _176
REMARK   80  A    between atoms: _176  and  _177
REMARK   81  A    between atoms: _181  and  _183
REMARK   82  A    between atoms: _183  and  _184
REMARK   83  A    between atoms: _183  and  _186
REMARK   84  A    between atoms: _186  and  _187
REMARK   85  A    between atoms: _190  and  _192
REMARK   86  A    between atoms: _192  and  _193
REMARK   87  A    between atoms: _192  and  _195
REMARK   88  A    between atoms: _198  and  _200
REMARK   89  A    between atoms: _200  and  _201
REMARK   90  A    between atoms: _200  and  _203
REMARK   91  A    between atoms: _203  and  _204
REMARK   92  A    between atoms: _204  and  _205
REMARK   93  A    between atoms: _205  and  _206
REMARK   94  A    between atoms: _206  and  _207
REMARK   95  A    between atoms: _211  and  _213
REMARK   96  A    between atoms: _213  and  _214
REMARK   97  A    between atoms: _213  and  _216
REMARK   98  A    between atoms: _216  and  _217
REMARK   99  A    between atoms: _220  and  _222
REMARK  100  A    between atoms: _222  and  _223
REMARK  101  A    between atoms: _222  and  _225
REMARK  102  A    between atoms: _225  and  _226
REMARK  103  A    between atoms: _229  and  _231
REMARK  104  A    between atoms: _231  and  _232
REMARK  105  A    between atoms: _231  and  _234
REMARK  106  A    between atoms: _234  and  _235
REMARK  107  A    between atoms: _238  and  _240
REMARK  108  A    between atoms: _240  and  _241
REMARK  109  A    between atoms: _240  and  _243
REMARK  110  A    between atoms: _246  and  _248
REMARK  111  A    between atoms: _248  and  _249
REMARK  112  A    between atoms: _248  and  _251
REMARK  113  A    between atoms: _251  and  _252
REMARK  114  A    between atoms: _258  and  _260
REMARK  115  A    between atoms: _260  and  _261
REMARK  116  A    between atoms: _260  and  _263
REMARK  117  A    between atoms: _263  and  _264
REMARK  118  A    between atoms: _264  and  _265
REMARK  119  A    between atoms: _268  and  _270
REMARK  120  A    between atoms: _270  and  _271
REMARK  121  A    between atoms: _270  and  _273
REMARK  122  A    between atoms: _273  and  _274
REMARK  123  A    between atoms: _280  and  _282
REMARK  124  A    between atoms: _282  and  _283
REMARK  125  A    between atoms: _282  and  _285
REMARK  126  A    between atoms: _285  and  _286
REMARK  127  A    between atoms: _289  and  _291
REMARK  128  A    between atoms: _291  and  _292
REMARK  129  A    between atoms: _291  and  _294
REMARK  130  A    between atoms: _294  and  _295
REMARK  131  A    between atoms: _300  and  _302
REMARK  132  A    between atoms: _302  and  _303
REMARK  133  A    between atoms: _302  and  _305
REMARK  134  A    between atoms: _305  and  _306
REMARK  135  A    between atoms: _306  and  _307
REMARK  136  A    between atoms: _312  and  _314
REMARK  137  A    between atoms: _314  and  _315
REMARK  138  A    between atoms: _314  and  _317
REMARK  139  A    between atoms: _317  and  _318
REMARK  140  A    between atoms: _321  and  _323
REMARK  141  A    between atoms: _323  and  _324
REMARK  142  A    between atoms: _323  and  _326
REMARK  143  A    between atoms: _326  and  _327
REMARK  144  A    between atoms: _330  and  _332
REMARK  145  A    between atoms: _332  and  _333
REMARK  146  A    between atoms: _332  and  _335
REMARK  147  A    between atoms: _335  and  _336
REMARK  148  A    between atoms: _336  and  _337
REMARK  149  A    between atoms: _337  and  _338
REMARK  150  A    between atoms: _338  and  _339
REMARK  151  A    between atoms: _343  and  _345
REMARK  152  A    between atoms: _345  and  _346
REMARK  153  A    between atoms: _345  and  _348
REMARK  154  A    between atoms: _348  and  _349
REMARK  155  A    between atoms: _349  and  _350
REMARK  156  A    between atoms: _350  and  _351
REMARK  157  A    between atoms: _351  and  _352
REMARK  158  A    between atoms: _356  and  _358
REMARK  159  A    between atoms: _358  and  _359
REMARK  160  A    between atoms: _358  and  _361
REMARK  161  A    between atoms: _361  and  _362
REMARK  162  A    between atoms: _368  and  _370
REMARK  163  A    between atoms: _370  and  _371
REMARK  164  A    between atoms: _370  and  _373
REMARK  165  A    between atoms: _373  and  _374
REMARK  166  A    between atoms: _377  and  _379
REMARK  167  A    between atoms: _379  and  _380
REMARK  168  A    between atoms: _379  and  _382
REMARK  169  A    between atoms: _382  and  _383
REMARK  170  A    between atoms: _388  and  _390
REMARK  171  A    between atoms: _390  and  _391
REMARK  172  A    between atoms: _390  and  _393
REMARK  173  A    between atoms: _393  and  _394
REMARK  174  A    between atoms: _394  and  _395
REMARK  175  A    between atoms: _395  and  _396
REMARK  176  A    between atoms: _396  and  _397
REMARK  177  A    between atoms: _402  and  _403
REMARK  178  A    between atoms: _408  and  _410
REMARK  179  A    between atoms: _410  and  _411
REMARK  180  A    between atoms: _410  and  _413
REMARK  181  A    between atoms: _413  and  _414
REMARK  182  A    between atoms: _414  and  _415
REMARK  183  A    between atoms: _420  and  _422
REMARK  184  A    between atoms: _422  and  _423
REMARK  185  A    between atoms: _422  and  _425
REMARK  186  A    between atoms: _425  and  _426
REMARK  187  A    between atoms: _431  and  _433
REMARK  188  A    between atoms: _433  and  _434
REMARK  189  A    between atoms: _433  and  _436
REMARK  190  A    between atoms: _436  and  _437
REMARK  191  A    between atoms: _440  and  _442
REMARK  192  A    between atoms: _442  and  _443
REMARK  193  A    between atoms: _442  and  _445
REMARK  194  A    between atoms: _445  and  _446
REMARK  195  A    between atoms: _449  and  _451
REMARK  196  A    between atoms: _451  and  _452
REMARK  197  A    between atoms: _451  and  _454
REMARK  198  A    between atoms: _454  and  _455
REMARK  199  A    between atoms: _458  and  _460
REMARK  200  A    between atoms: _460  and  _461
REMARK  201  A    between atoms: _460  and  _463
REMARK  202  A    between atoms: _463  and  _464
REMARK  203  A    between atoms: _464  and  _465
REMARK  204  A    between atoms: _465  and  _466
REMARK  205  A    between atoms: _466  and  _467
REMARK  206  A    between atoms: _471  and  _473
REMARK  207  A    between atoms: _473  and  _474
REMARK  208  A    between atoms: _473  and  _476
REMARK  209  A    between atoms: _476  and  _477
REMARK  210  A    between atoms: _480  and  _482
REMARK  211  A    between atoms: _482  and  _483
REMARK  212  A    between atoms: _486  and  _488
REMARK  213  A    between atoms: _488  and  _489
REMARK  214  A    between atoms: _488  and  _491
REMARK  215  A    between atoms: _491  and  _492
REMARK  216  A    between atoms: _495  and  _497
REMARK  217  A    between atoms: _497  and  _498
REMARK  218  A    between atoms: _497  and  _500
REMARK  219  A    between atoms: _500  and  _501
REMARK  220  A    between atoms: _507  and  _509
REMARK  221  A    between atoms: _509  and  _510
REMARK  222  A    between atoms: _509  and  _512
REMARK  223  A    between atoms: _512  and  _513
REMARK  224  A    between atoms: _516  and  _518
REMARK  225  A    between atoms: _518  and  _519
REMARK  226  A    between atoms: _518  and  _521
REMARK  227  A    between atoms: _521  and  _522
REMARK                            x       y       z     vdW  Elec       q    Type
REMARK                         _______ _______ _______ _____ _____    ______ ____
ROOT
ATOM      1  CB  HIS A   1      29.038  33.764  13.744  0.00  0.00    +0.072 C 
ENDROOT
BRANCH   1   2
ATOM      2  CG  HIS A   1      28.736  32.823  14.871  0.00  0.00    +0.082 A 
ATOM      3  ND1 HIS A   1      28.361  33.267  16.121  0.00  0.00    -0.227 NA
ATOM      4  CE1 HIS A   1      28.325  32.248  16.959  0.00  0.00    +0.199 A 
ATOM      5  NE2 HIS A   1      28.765  31.177  16.321  0.00  0.00    -0.221 NA
ATOM      6  CD2 HIS A   1      29.026  31.514  15.013  0.00  0.00    +0.115 A 
ENDBRANCH   1   2
BRANCH   1   7
ATOM      7  CA  HIS A   1      30.549  33.940  13.511  0.00  0.00    +0.139 C 
BRANCH   7   8
ATOM      8  N   HIS A   1      30.770  34.933  12.473  0.00  0.00    -0.239 NA
ATOM      9  H   HIS A   1      29.986  35.227  11.856  0.00  0.00    +0.142 HD
ENDBRANCH   7   8
BRANCH   7  10
ATOM     10  C   HIS A   1      31.180  32.592  13.105  0.00  0.00    +0.224 C 
ATOM     11  O   HIS A   1      31.927  31.965  13.885  0.00  0.00    -0.287 OA
ENDBRANCH   7  10
ENDBRANCH   1   7
TORSDOF 4
REMARK  Name = ../refined-set-2016/2xnb/2xnb_pocket.pdb
REMARK  227 active torsions:
REMARK  status: ('A' for Active; 'I' for Inactive)
REMARK    1  A    between atoms: _1  and  _3
REMARK    2  A    between atoms: _3  and  _4
REMARK    3  A    between atoms: _3  and  _6
REMARK    4  A    between atoms: _6  and  _7
REMARK    5  A    between atoms: _7  and  _8
REMARK    6  A    between atoms: _11  and  _13
REMARK    7  A    between atoms: _13  and  _14
REMARK    8  A    between atoms: _13  and  _16
REMARK    9  A    between atoms: _16  and  _17
REMARK   10  A    between atoms: _17  and  _18
REMARK   11  A    between atoms: _18  and  _19
REMARK   12  A    between atoms: _19  and  _20
REMARK   13  A    between atoms: _24  and  _26
REMARK   14  A    between atoms: _26  and  _27
REMARK   15  A    between atoms: _26  and  _29
REMARK   16  A    between atoms: _29  and  _30
REMARK   17  A    between atoms: _33  and  _35
REMARK   18  A    between atoms: _35  and  _36
REMARK   19  A    between atoms: _38  and  _40
REMARK   20  A    between atoms: _40  and  _41
REMARK   21  A    between atoms: _40  and  _43
REMARK   22  A    between atoms: _43  and  _44
REMARK   23  A    between atoms: _44  and  _45
REMARK   24  A    between atoms: _48  and  _50
REMARK   25  A    between atoms: _50  and  _51
REMARK   26  A    between atoms: _53  and  _55
REMARK   27  A    between atoms: _55  and  _56
REMARK   28  A    between atoms: _55  and  _58
REMARK   29  A    between atoms: _58  and  _59
REMARK   30  A    between atoms: _62  and  _64
REMARK   31  A    between atoms: _64  and  _65
REMARK   32  A    between atoms: _64  and  _67
REMARK   33  A    between atoms: _67  and  _68
REMARK   34  A    between atoms: _73  and  _74
REMARK   35  A    between atoms: _76  and  _78
REMARK   36  A    between atoms: _78  and  _79
REMARK   37  A    between atoms: _81  and  _83
REMARK   38  A    between atoms: _83  and  _84
REMARK   39  A    between atoms: _83  and  _86
REMARK   40  A    between atoms: _89  and  _91
REMARK   41  A    between atoms: _91  and  _92
REMARK   42  A    between atoms: _91  and  _94
REMARK   43  A    between atoms: _97  and  _99
REMARK   44  A    between atoms: _99  and  _100
REMARK   45  A    between atoms: _99  and  _102
REMARK   46  A    between atoms: _102  and  _103
REMARK   47  A    between atoms: _108  and  _109
REMARK   48  A    between atoms: _111  and  _113
REMARK   49  A    between atoms: _113  and  _114
REMARK   50  A    between atoms: _113  and  _116
REMARK   51  A    between atoms: _116  and  _117
REMARK   52  A    between atoms: _117  and  _118
REMARK   53  A    between atoms: _118  and  _119
REMARK   54  A    between atoms: _119  and  _120
REMARK   55  A    between atoms: _124  and  _126
REMARK   56  A    between atoms: _126  and  _127
REMARK   57  A    between atoms: _126  and  _129
REMARK   58  A    between atoms: _132  and  _134
REMARK   59  A    between atoms: _134  and  _135
REMARK   60  A    between atoms: _134  and  _137
REMARK   61  A    between atoms: _140  and  _142
REMARK   62  A    between atoms: _142  and  _143
REMARK   63  A    between atoms: _146  and  _148
REMARK   64  A    between atoms: _148  and  _149
REMARK   65  A    between atoms: _148  and  _151
REMARK   66  A    between atoms: _151  and  _152
REMARK   67  A    between atoms: _155  and  _157
REMARK   68  A    between atoms: _157  and  _158
REMARK   69  A    between atoms: _157  and  _160
REMARK   70  A    between atoms: _160  and  _161
REMARK   71  A    between atoms: _161  and  _162
REMARK   72  A    between atoms: _162  and  _163
REMARK   73  A    between atoms: _163  and  _164
REMARK   74  A    between atoms: _168  and  _170
REMARK   75  A    between atoms: _170  and  _171
REMARK   76  A    between atoms: _170  and  _173
REMARK   77  A    between atoms: _173  and  _174
REMARK   78  A    between atoms: _174  and  _175
REMARK   79  A    between atoms: _175  and  _176
REMARK   80  A    between atoms: _176  and  _177
REMARK   81  A    between atoms: _181  and  _183
REMARK   82  A    between atoms: _183  and  _184
REMARK   83  A    between atoms: _183  and  _186
REMARK   84  A    between atoms: _186  and  _187
REMARK   85  A    between atoms: _190  and  _192
REMARK   86  A    between atoms: _192  and  _193
REMARK   87  A    between atoms: _192  and  _195
REMARK   88  A    between atoms: _198  and  _200
REMARK   89  A    between atoms: _200  and  _201
REMARK   90  A    between atoms: _200  and  _203
REMARK   91  A    between atoms: _203  and  _204
REMARK   92  A    between atoms: _204  and  _205
REMARK   93  A    between atoms: _205  and  _206
REMARK   94  A    between atoms: _206  and  _207
REMARK   95  A    between atoms: _211  and  _213
REMARK   96  A    between atoms: _213  and  _214
REMARK   97  A    between atoms: _213  and  _216
REMARK   98  A    between atoms: _216  and  _217
REMARK   99  A    between atoms: _220  and  _222
REMARK  100  A    between atoms: _222  and  _223
REMARK  101  A    between atoms: _222  and  _225
REMARK  102  A    between atoms: _225  and  _226
REMARK  103  A    between atoms: _229  and  _231
REMARK  104  A    between atoms: _231  and  _232
REMARK  105  A    between atoms: _231  and  _234
REMARK  106  A    between atoms: _234  and  _235
REMARK  107  A    between atoms: _238  and  _240
REMARK  108  A    between atoms: _240  and  _241
REMARK  109  A    between atoms: _240  and  _243
REMARK  110  A    between atoms: _246  and  _248
REMARK  111  A    between atoms: _248  and  _249
REMARK  112  A    between atoms: _248  and  _251
REMARK  113  A    between atoms: _251  and  _252
REMARK  114  A    between atoms: _258  and  _260
REMARK  115  A    between atoms: _260  and  _261
REMARK  116  A    between atoms: _260  and  _263
REMARK  117  A    between atoms: _263  and  _264
REMARK  118  A    between atoms: _264  and  _265
REMARK  119  A    between atoms: _268  and  _270
REMARK  120  A    between atoms: _270  and  _271
REMARK  121  A    between atoms: _270  and  _273
REMARK  122  A    between atoms: _273  and  _274
REMARK  123  A    between atoms: _280  and  _282
REMARK  124  A    between atoms: _282  and  _283
REMARK  125  A    between atoms: _282  and  _285
REMARK  126  A    between atoms: _285  and  _286
REMARK  127  A    between atoms: _289  and  _291
REMARK  128  A    between atoms: _291  and  _292
REMARK  129  A    between atoms: _291  and  _294
REMARK  130  A    between atoms: _294  and  _295
REMARK  131  A    between atoms: _300  and  _302
REMARK  132  A    between atoms: _302  and  _303
REMARK  133  A    between atoms: _302  and  _305
REMARK  134  A    between atoms: _305  and  _306
REMARK  135  A    between atoms: _306  and  _307
REMARK  136  A    between atoms: _312  and  _314
REMARK  137  A    between atoms: _314  and  _315
REMARK  138  A    between atoms: _314  and  _317
REMARK  139  A    between atoms: _317  and  _318
REMARK  140  A    between atoms: _321  and  _323
REMARK  141  A    between atoms: _323  and  _324
REMARK  142  A    between atoms: _323  and  _326
REMARK  143  A    between atoms: _326  and  _327
REMARK  144  A    between atoms: _330  and  _332
REMARK  145  A    between atoms: _332  and  _333
REMARK  146  A    between atoms: _332  and  _335
REMARK  147  A    between atoms: _335  and  _336
REMARK  148  A    between atoms: _336  and  _337
REMARK  149  A    between atoms: _337  and  _338
REMARK  150  A    between atoms: _338  and  _339
REMARK  151  A    between atoms: _343  and  _345
REMARK  152  A    between atoms: _345  and  _346
REMARK  153  A    between atoms: _345  and  _348
REMARK  154  A    between atoms: _348  and  _349
REMARK  155  A    between atoms: _349  and  _350
REMARK  156  A    between atoms: _350  and  _351
REMARK  157  A    between atoms: _351  and  _352
REMARK  158  A    between atoms: _356  and  _358
REMARK  159  A    between atoms: _358  and  _359
REMARK  160  A    between atoms: _358  and  _361
REMARK  161  A    between atoms: _361  and  _362
REMARK  162  A    between atoms: _368  and  _370
REMARK  163  A    between atoms: _370  and  _371
REMARK  164  A    between atoms: _370  and  _373
REMARK  165  A    between atoms: _373  and  _374
REMARK  166  A    between atoms: _377  and  _379
REMARK  167  A    between atoms: _379  and  _380
REMARK  168  A    between atoms: _379  and  _382
REMARK  169  A    between atoms: _382  and  _383
REMARK  170  A    between atoms: _388  and  _390
REMARK  171  A    between atoms: _390  and  _391
REMARK  172  A    between atoms: _390  and  _393
REMARK  173  A    between atoms: _393  and  _394
REMARK  174  A    between atoms: _394  and  _395
REMARK  175  A    between atoms: _395  and  _396
REMARK  176  A    between atoms: _396  and  _397
REMARK  177  A    between atoms: _402  and  _403
REMARK  178  A    between atoms: _408  and  _410
REMARK  179  A    between atoms: _410  and  _411
REMARK  180  A    between atoms: _410  and  _413
REMARK  181  A    between atoms: _413  and  _414
REMARK  182  A    between atoms: _414  and  _415
REMARK  183  A    between atoms: _420  and  _422
REMARK  184  A    between atoms: _422  and  _423
REMARK  185  A    between atoms: _422  and  _425
REMARK  186  A    between atoms: _425  and  _426
REMARK  187  A    between atoms: _431  and  _433
REMARK  188  A    between atoms: _433  and  _434
REMARK  189  A    between atoms: _433  and  _436
REMARK  190  A    between atoms: _436  and  _437
REMARK  191  A    between atoms: _440  and  _442
REMARK  192  A    between atoms: _442  and  _443
REMARK  193  A    between atoms: _442  and  _445
REMARK  194  A    between atoms: _445  and  _446
REMARK  195  A    between atoms: _449  and  _451
REMARK  196  A    between atoms: _451  and  _452
REMARK  197  A    between atoms: _451  and  _454
REMARK  198  A    between atoms: _454  and  _455
REMARK  199  A    between atoms: _458  and  _460
REMARK  200  A    between atoms: _460  and  _461
REMARK  201  A    between atoms: _460  and  _463
REMARK  202  A    between atoms: _463  and  _464
REMARK  203  A    between atoms: _464  and  _465
REMARK  204  A    between atoms: _465  and  _466
REMARK  205  A    between atoms: _466  and  _467
REMARK  206  A    between atoms: _471  and  _473
REMARK  207  A    between atoms: _473  and  _474
REMARK  208  A    between atoms: _473  and  _476
REMARK  209  A    between atoms: _476  and  _477
REMARK  210  A    between atoms: _480  and  _482
REMARK  211  A    between atoms: _482  and  _483
REMARK  212  A    between atoms: _486  and  _488
REMARK  213  A    between atoms: _488  and  _489
REMARK  214  A    between atoms: _488  and  _491
REMARK  215  A    between atoms: _491  and  _492
REMARK  216  A    between atoms: _495  and  _497
REMARK  217  A    between atoms: _497  and  _498
REMARK  218  A    between atoms: _497  and  _500
REMARK  219  A    between atoms: _500  and  _501
REMARK  220  A    between atoms: _507  and  _509
REMARK  221  A    between atoms: _509  and  _510
REMARK  222  A    between atoms: _509  and  _512
REMARK  223  A    between atoms: _512  and  _513
REMARK  224  A    between atoms: _516  and  _518
REMARK  225  A    between atoms: _518  and  _519
REMARK  226  A    between atoms: _518  and  _521
REMARK  227  A    between atoms: _521  and  _522
REMARK                            x       y       z     vdW  Elec       q    Type
REMARK                         _______ _______ _______ _____ _____    ______ ____
ROOT
ATOM      1  CA  ASN A   4      25.027  29.080  20.061  0.00  0.00    +0.158 C 
ENDROOT
BRANCH   1   4
ATOM      2  C   GLN A   3      23.930  27.012  20.970  0.00  0.00    +0.241 C 
ATOM      3  O   GLN A   3      24.289  27.220  22.135  0.00  0.00    -0.273 OA
ATOM      4  N   ASN A   4      24.262  27.808  19.948  0.00  0.00    -0.297 N 
ATOM      5  H   ASN A   4      23.961  27.514  18.997  0.00  0.00    +0.150 HD
BRANCH   2   6
ATOM      6  CA  GLN A   3      23.062  25.769  20.629  0.00  0.00    +0.149 C 
BRANCH   6   9
ATOM      7  C   PRO A   2      21.163  26.671  19.307  0.00  0.00    +0.241 C 
ATOM      8  O   PRO A   2      20.671  27.297  20.254  0.00  0.00    -0.273 OA
ATOM      9  N   GLN A   3      22.244  25.905  19.405  0.00  0.00    -0.297 N 
ATOM     10  H   GLN A   3      22.534  25.365  18.565  0.00  0.00    +0.150 HD
BRANCH   7  14
ATOM     11  C   LYS A   1      22.562  27.170  16.635  0.00  0.00    +0.241 C 
ATOM     12  O   LYS A   1      22.948  28.005  17.441  0.00  0.00    -0.273 OA
ATOM     13  N   PRO A   2      21.409  26.461  16.782  0.00  0.00    -0.272 N 
ATOM     14  CA  PRO A   2      20.505  26.715  17.929  0.00  0.00    +0.152 C 
ATOM     15  CB  PRO A   2      19.467  25.572  17.831  0.00  0.00    +0.031 C 
ATOM     16  CG  PRO A   2      19.409  25.237  16.337  0.00  0.00    +0.024 C 
ATOM     17  CD  PRO A   2      20.809  25.512  15.810  0.00  0.00    +0.094 C 
BRANCH  11  18
ATOM     18  CA  LYS A   1      23.414  26.928  15.423  0.00  0.00    +0.145 C 
BRANCH  18  19
ATOM     19  N   LYS A   1      24.334  28.044  15.261  0.00  0.00    -0.238 NA
ATOM     20  H   LYS A   1      24.486  28.692  16.060  0.00  0.00    +0.142 HD
ENDBRANCH  18  19
BRANCH  18  21
ATOM     21  CB  LYS A   1      24.191  25.628  15.510  0.00  0.00    +0.026 C 
BRANCH  21  22
ATOM     22  CG  LYS A   1      25.277  25.565  16.523  0.00  0.00    -0.000 C 
BRANCH  22  23
ATOM     23  CD  LYS A   1      26.128  24.321  16.243  0.00  0.00    -0.024 C 
BRANCH  23  24
ATOM     24  CE  LYS A   1      26.923  23.933  17.482  0.00  0.00    -0.086 C 
BRANCH  24  25
ATOM     25  NZ  LYS A   1      28.353  23.638  17.182  0.00  0.00    +0.380 N 
ATOM     26  HZ1 LYS A   1      28.844  23.380  18.062  0.00  0.00    -0.089 HD
ATOM     27  HZ2 LYS A   1      28.800  24.481  16.768  0.00  0.00    -0.089 HD
ATOM     28  HZ3 LYS A   1      28.409  22.848  16.508  0.00  0.00    -0.089 HD
ENDBRANCH  24  25
ENDBRANCH  23  24
ENDBRANCH  22  23
ENDBRANCH  21  22
ENDBRANCH  18  21
ENDBRANCH  11  18
ENDBRANCH   7  14
ENDBRANCH   6   9
BRANCH   6  29
ATOM     29  CB  GLN A   3      23.920  24.508  20.447  0.00  0.00    +0.039 C 
BRANCH  29  30
ATOM     30  CG  GLN A   3      23.082  23.231  20.187  0.00  0.00    +0.087 C 
BRANCH  30  31
ATOM     31  CD  GLN A   3      22.775  22.900  18.689  0.00  0.00    +0.219 C 
ATOM     32  NE2 GLN A   3      22.243  21.711  18.444  0.00  0.00    -0.329 N 
ATOM     33 HE21 GLN A   3      22.103  21.034  19.221  0.00  0.00    +0.145 HD
ATOM     34 HE22 GLN A   3      21.965  21.455  17.475  0.00  0.00    +0.145 HD
ATOM     35  OE1 GLN A   3      22.950  23.712  17.800  0.00  0.00    -0.275 OA
ENDBRANCH  30  31
ENDBRANCH  29  30
ENDBRANCH   6  29
ENDBRANCH   2   6
ENDBRANCH   1   4
BRANCH   1  36
ATOM     36  C   ASN A   4      24.146  30.320  20.055  0.00  0.00    +0.241 C 
ATOM     37  N   LEU A   5      22.860  30.096  20.240  0.00  0.00    -0.297 N 
ATOM     38  H   LEU A   5      22.520  29.114  20.287  0.00  0.00    +0.150 HD
ATOM     39  O   ASN A   4      24.613  31.474  19.931  0.00  0.00    -0.273 OA
BRANCH  37  40
ATOM     40  CA  LEU A   5      21.896  31.191  20.381  0.00  0.00    +0.149 C 
BRANCH  40  41
ATOM     41  C   LEU A   5      21.199  31.035  21.724  0.00  0.00    +0.241 C 
ATOM     42  N   LEU A   6      21.335  32.088  22.512  0.00  0.00    -0.297 N 
ATOM     43  H   LEU A   6      21.801  32.940  22.140  0.00  0.00    +0.150 HD
ATOM     44  O   LEU A   5      20.589  30.001  22.079  0.00  0.00    -0.273 OA
BRANCH  42  45
ATOM     45  CA  LEU A   6      20.855  32.090  23.874  0.00  0.00    +0.149 C 
BRANCH  45  46
ATOM     46  C   LEU A   6      19.702  33.071  24.083  0.00  0.00    +0.241 C 
ATOM     47  N   ILE A   7      18.697  32.626  24.834  0.00  0.00    -0.298 N 
ATOM     48  H   ILE A   7      18.766  31.696  25.295  0.00  0.00    +0.150 HD
ATOM     49  O   LEU A   6      19.667  34.149  23.468  0.00  0.00    -0.273 OA
BRANCH  47  50
ATOM     50  CA  ILE A   7      17.498  33.439  25.012  0.00  0.00    +0.137 C 
BRANCH  50  51
ATOM     51  C   ILE A   7      17.171  33.844  26.467  0.00  0.00    +0.227 C 
ATOM     52  O   ILE A   7      17.499  33.158  27.435  0.00  0.00    -0.286 OA
ENDBRANCH  50  51
BRANCH  50  53
ATOM     53  CB  ILE A   7      16.284  32.785  24.384  0.00  0.00    +0.026 C 
ATOM     54  CG2 ILE A   7      16.323  32.802  22.827  0.00  0.00    +0.002 C 
BRANCH  53  55
ATOM     55  CG1 ILE A   7      16.031  31.375  24.969  0.00  0.00    +0.002 C 
ATOM     56  CD1 ILE A   7      14.682  30.848  24.485  0.00  0.00    +0.000 C 
ENDBRANCH  53  55
ENDBRANCH  50  53
ENDBRANCH  47  50
ENDBRANCH  45  46
BRANCH  45  57
ATOM     57  CB  LEU A   6      21.994  32.407  24.835  0.00  0.00    +0.029 C 
BRANCH  57  58
ATOM     58  CG  LEU A   6      23.094  31.330  24.982  0.00  0.00    +0.002 C 
ATOM     59  CD2 LEU A   6      22.602  29.921  25.396  0.00  0.00    +0.000 C 
ATOM     60  CD1 LEU A   6      23.831  31.227  23.700  0.00  0.00    +0.000 C 
ENDBRANCH  57  58
ENDBRANCH  45  57
ENDBRANCH  42  45
ENDBRANCH  40  41
BRANCH  40  61
ATOM     61  CB  LEU A   5      20.896  31.217  19.234  0.00  0.00    +0.029 C 
BRANCH  61  62
ATOM     62  CG  LEU A   5      21.237  31.652  17.802  0.00  0.00    +0.002 C 
ATOM     63  CD2 LEU A   5      22.669  31.669  17.454  0.00  0.00    +0.000 C 
ATOM     64  CD1 LEU A   5      20.352  31.025  16.692  0.00  0.00    +0.000 C 
ENDBRANCH  61  62
ENDBRANCH  40  61
ENDBRANCH  37  40
ENDBRANCH   1  36
BRANCH   1  65
ATOM     65  CB  ASN A   4      25.987  29.164  18.881  0.00  0.00    +0.114 C 
BRANCH  65  66
ATOM     66  CG  ASN A   4      27.081  28.146  19.011  0.00  0.00    +0.222 C 
ATOM     67  OD1 ASN A   4      27.372  27.723  20.142  0.00  0.00    -0.275 OA
ATOM     68  ND2 ASN A   4      27.753  27.816  17.920  0.00  0.00    -0.329 N 
ATOM     69 HD21 ASN A   4      28.568  27.173  17.986  0.00  0.00    +0.145 HD
ATOM     70 HD22 ASN A   4      27.466  28.199  16.997  0.00  0.00    +0.145 HD
ENDBRANCH  65  66
ENDBRANCH   1  65
TORSDOF 29
REMARK  Name = ../refined-set-2016/2xnb/2xnb_pocket.pdb
REMARK  227 active torsions:
REMARK  status: ('A' for Active; 'I' for Inactive)
REMARK    1  A    between atoms: _1  and  _3
REMARK    2  A    between atoms: _3  and  _4
REMARK    3  A    between atoms: _3  and  _6
REMARK    4  A    between atoms: _6  and  _7
REMARK    5  A    between atoms: _7  and  _8
REMARK    6  A    between atoms: _11  and  _13
REMARK    7  A    between atoms: _13  and  _14
REMARK    8  A    between atoms: _13  and  _16
REMARK    9  A    between atoms: _16  and  _17
REMARK   10  A    between atoms: _17  and  _18
REMARK   11  A    between atoms: _18  and  _19
REMARK   12  A    between atoms: _19  and  _20
REMARK   13  A    between atoms: _24  and  _26
REMARK   14  A    between atoms: _26  and  _27
REMARK   15  A    between atoms: _26  and  _29
REMARK   16  A    between atoms: _29  and  _30
REMARK   17  A    between atoms: _33  and  _35
REMARK   18  A    between atoms: _35  and  _36
REMARK   19  A    between atoms: _38  and  _40
REMARK   20  A    between atoms: _40  and  _41
REMARK   21  A    between atoms: _40  and  _43
REMARK   22  A    between atoms: _43  and  _44
REMARK   23  A    between atoms: _44  and  _45
REMARK   24  A    between atoms: _48  and  _50
REMARK   25  A    between atoms: _50  and  _51
REMARK   26  A    between atoms: _53  and  _55
REMARK   27  A    between atoms: _55  and  _56
REMARK   28  A    between atoms: _55  and  _58
REMARK   29  A    between atoms: _58  and  _59
REMARK   30  A    between atoms: _62  and  _64
REMARK   31  A    between atoms: _64  and  _65
REMARK   32  A    between atoms: _64  and  _67
REMARK   33  A    between atoms: _67  and  _68
REMARK   34  A    between atoms: _73  and  _74
REMARK   35  A    between atoms: _76  and  _78
REMARK   36  A    between atoms: _78  and  _79
REMARK   37  A    between atoms: _81  and  _83
REMARK   38  A    between atoms: _83  and  _84
REMARK   39  A    between atoms: _83  and  _86
REMARK   40  A    between atoms: _89  and  _91
REMARK   41  A    between atoms: _91  and  _92
REMARK   42  A    between atoms: _91  and  _94
REMARK   43  A    between atoms: _97  and  _99
REMARK   44  A    between atoms: _99  and  _100
REMARK   45  A    between atoms: _99  and  _102
REMARK   46  A    between atoms: _102  and  _103
REMARK   47  A    between atoms: _108  and  _109
REMARK   48  A    between atoms: _111  and  _113
REMARK   49  A    between atoms: _113  and  _114
REMARK   50  A    between atoms: _113  and  _116
REMARK   51  A    between atoms: _116  and  _117
REMARK   52  A    between atoms: _117  and  _118
REMARK   53  A    between atoms: _118  and  _119
REMARK   54  A    between atoms: _119  and  _120
REMARK   55  A    between atoms: _124  and  _126
REMARK   56  A    between atoms: _126  and  _127
REMARK   57  A    between atoms: _126  and  _129
REMARK   58  A    between atoms: _132  and  _134
REMARK   59  A    between atoms: _134  and  _135
REMARK   60  A    between atoms: _134  and  _137
REMARK   61  A    between atoms: _140  and  _142
REMARK   62  A    between atoms: _142  and  _143
REMARK   63  A    between atoms: _146  and  _148
REMARK   64  A    between atoms: _148  and  _149
REMARK   65  A    between atoms: _148  and  _151
REMARK   66  A    between atoms: _151  and  _152
REMARK   67  A    between atoms: _155  and  _157
REMARK   68  A    between atoms: _157  and  _158
REMARK   69  A    between atoms: _157  and  _160
REMARK   70  A    between atoms: _160  and  _161
REMARK   71  A    between atoms: _161  and  _162
REMARK   72  A    between atoms: _162  and  _163
REMARK   73  A    between atoms: _163  and  _164
REMARK   74  A    between atoms: _168  and  _170
REMARK   75  A    between atoms: _170  and  _171
REMARK   76  A    between atoms: _170  and  _173
REMARK   77  A    between atoms: _173  and  _174
REMARK   78  A    between atoms: _174  and  _175
REMARK   79  A    between atoms: _175  and  _176
REMARK   80  A    between atoms: _176  and  _177
REMARK   81  A    between atoms: _181  and  _183
REMARK   82  A    between atoms: _183  and  _184
REMARK   83  A    between atoms: _183  and  _186
REMARK   84  A    between atoms: _186  and  _187
REMARK   85  A    between atoms: _190  and  _192
REMARK   86  A    between atoms: _192  and  _193
REMARK   87  A    between atoms: _192  and  _195
REMARK   88  A    between atoms: _198  and  _200
REMARK   89  A    between atoms: _200  and  _201
REMARK   90  A    between atoms: _200  and  _203
REMARK   91  A    between atoms: _203  and  _204
REMARK   92  A    between atoms: _204  and  _205
REMARK   93  A    between atoms: _205  and  _206
REMARK   94  A    between atoms: _206  and  _207
REMARK   95  A    between atoms: _211  and  _213
REMARK   96  A    between atoms: _213  and  _214
REMARK   97  A    between atoms: _213  and  _216
REMARK   98  A    between atoms: _216  and  _217
REMARK   99  A    between atoms: _220  and  _222
REMARK  100  A    between atoms: _222  and  _223
REMARK  101  A    between atoms: _222  and  _225
REMARK  102  A    between atoms: _225  and  _226
REMARK  103  A    between atoms: _229  and  _231
REMARK  104  A    between atoms: _231  and  _232
REMARK  105  A    between atoms: _231  and  _234
REMARK  106  A    between atoms: _234  and  _235
REMARK  107  A    between atoms: _238  and  _240
REMARK  108  A    between atoms: _240  and  _241
REMARK  109  A    between atoms: _240  and  _243
REMARK  110  A    between atoms: _246  and  _248
REMARK  111  A    between atoms: _248  and  _249
REMARK  112  A    between atoms: _248  and  _251
REMARK  113  A    between atoms: _251  and  _252
REMARK  114  A    between atoms: _258  and  _260
REMARK  115  A    between atoms: _260  and  _261
REMARK  116  A    between atoms: _260  and  _263
REMARK  117  A    between atoms: _263  and  _264
REMARK  118  A    between atoms: _264  and  _265
REMARK  119  A    between atoms: _268  and  _270
REMARK  120  A    between atoms: _270  and  _271
REMARK  121  A    between atoms: _270  and  _273
REMARK  122  A    between atoms: _273  and  _274
REMARK  123  A    between atoms: _280  and  _282
REMARK  124  A    between atoms: _282  and  _283
REMARK  125  A    between atoms: _282  and  _285
REMARK  126  A    between atoms: _285  and  _286
REMARK  127  A    between atoms: _289  and  _291
REMARK  128  A    between atoms: _291  and  _292
REMARK  129  A    between atoms: _291  and  _294
REMARK  130  A    between atoms: _294  and  _295
REMARK  131  A    between atoms: _300  and  _302
REMARK  132  A    between atoms: _302  and  _303
REMARK  133  A    between atoms: _302  and  _305
REMARK  134  A    between atoms: _305  and  _306
REMARK  135  A    between atoms: _306  and  _307
REMARK  136  A    between atoms: _312  and  _314
REMARK  137  A    between atoms: _314  and  _315
REMARK  138  A    between atoms: _314  and  _317
REMARK  139  A    between atoms: _317  and  _318
REMARK  140  A    between atoms: _321  and  _323
REMARK  141  A    between atoms: _323  and  _324
REMARK  142  A    between atoms: _323  and  _326
REMARK  143  A    between atoms: _326  and  _327
REMARK  144  A    between atoms: _330  and  _332
REMARK  145  A    between atoms: _332  and  _333
REMARK  146  A    between atoms: _332  and  _335
REMARK  147  A    between atoms: _335  and  _336
REMARK  148  A    between atoms: _336  and  _337
REMARK  149  A    between atoms: _337  and  _338
REMARK  150  A    between atoms: _338  and  _339
REMARK  151  A    between atoms: _343  and  _345
REMARK  152  A    between atoms: _345  and  _346
REMARK  153  A    between atoms: _345  and  _348
REMARK  154  A    between atoms: _348  and  _349
REMARK  155  A    between atoms: _349  and  _350
REMARK  156  A    between atoms: _350  and  _351
REMARK  157  A    between atoms: _351  and  _352
REMARK  158  A    between atoms: _356  and  _358
REMARK  159  A    between atoms: _358  and  _359
REMARK  160  A    between atoms: _358  and  _361
REMARK  161  A    between atoms: _361  and  _362
REMARK  162  A    between atoms: _368  and  _370
REMARK  163  A    between atoms: _370  and  _371
REMARK  164  A    between atoms: _370  and  _373
REMARK  165  A    between atoms: _373  and  _374
REMARK  166  A    between atoms: _377  and  _379
REMARK  167  A    between atoms: _379  and  _380
REMARK  168  A    between atoms: _379  and  _382
REMARK  169  A    between atoms: _382  and  _383
REMARK  170  A    between atoms: _388  and  _390
REMARK  171  A    between atoms: _390  and  _391
REMARK  172  A    between atoms: _390  and  _393
REMARK  173  A    between atoms: _393  and  _394
REMARK  174  A    between atoms: _394  and  _395
REMARK  175  A    between atoms: _395  and  _396
REMARK  176  A    between atoms: _396  and  _397
REMARK  177  A    between atoms: _402  and  _403
REMARK  178  A    between atoms: _408  and  _410
REMARK  179  A    between atoms: _410  and  _411
REMARK  180  A    between atoms: _410  and  _413
REMARK  181  A    between atoms: _413  and  _414
REMARK  182  A    between atoms: _414  and  _415
REMARK  183  A    between atoms: _420  and  _422
REMARK  184  A    between atoms: _422  and  _423
REMARK  185  A    between atoms: _422  and  _425
REMARK  186  A    between atoms: _425  and  _426
REMARK  187  A    between atoms: _431  and  _433
REMARK  188  A    between atoms: _433  and  _434
REMARK  189  A    between atoms: _433  and  _436
REMARK  190  A    between atoms: _436  and  _437
REMARK  191  A    between atoms: _440  and  _442
REMARK  192  A    between atoms: _442  and  _443
REMARK  193  A    between atoms: _442  and  _445
REMARK  194  A    between atoms: _445  and  _446
REMARK  195  A    between atoms: _449  and  _451
REMARK  196  A    between atoms: _451  and  _452
REMARK  197  A    between atoms: _451  and  _454
REMARK  198  A    between atoms: _454  and  _455
REMARK  199  A    between atoms: _458  and  _460
REMARK  200  A    between atoms: _460  and  _461
REMARK  201  A    between atoms: _460  and  _463
REMARK  202  A    between atoms: _463  and  _464
REMARK  203  A    between atoms: _464  and  _465
REMARK  204  A    between atoms: _465  and  _466
REMARK  205  A    between atoms: _466  and  _467
REMARK  206  A    between atoms: _471  and  _473
REMARK  207  A    between atoms: _473  and  _474
REMARK  208  A    between atoms: _473  and  _476
REMARK  209  A    between atoms: _476  and  _477
REMARK  210  A    between atoms: _480  and  _482
REMARK  211  A    between atoms: _482  and  _483
REMARK  212  A    between atoms: _486  and  _488
REMARK  213  A    between atoms: _488  and  _489
REMARK  214  A    between atoms: _488  and  _491
REMARK  215  A    between atoms: _491  and  _492
REMARK  216  A    between atoms: _495  and  _497
REMARK  217  A    between atoms: _497  and  _498
REMARK  218  A    between atoms: _497  and  _500
REMARK  219  A    between atoms: _500  and  _501
REMARK  220  A    between atoms: _507  and  _509
REMARK  221  A    between atoms: _509  and  _510
REMARK  222  A    between atoms: _509  and  _512
REMARK  223  A    between atoms: _512  and  _513
REMARK  224  A    between atoms: _516  and  _518
REMARK  225  A    between atoms: _518  and  _519
REMARK  226  A    between atoms: _518  and  _521
REMARK  227  A    between atoms: _521  and  _522
REMARK                            x       y       z     vdW  Elec       q    Type
REMARK                         _______ _______ _______ _____ _____    ______ ____
ROOT
ATOM      1  CA  ALA A   3      27.379  33.264  21.376  0.00  0.00    +0.149 C 
ATOM      2  CB  ALA A   3      26.834  32.636  22.654  0.00  0.00    +0.031 C 
ENDROOT
BRANCH   1   3
ATOM      3  C   ALA A   3      28.342  32.279  20.698  0.00  0.00    +0.241 C 
ATOM      4  N   ASP A   4      29.527  32.152  21.282  0.00  0.00    -0.297 N 
ATOM      5  H   ASP A   4      29.778  32.827  22.032  0.00  0.00    +0.150 HD
ATOM      6  O   ALA A   3      28.054  31.748  19.597  0.00  0.00    -0.273 OA
BRANCH   4   7
ATOM      7  CA  ASP A   4      30.507  31.110  20.930  0.00  0.00    +0.160 C 
BRANCH   7   8
ATOM      8  C   ASP A   4      31.162  31.405  19.594  0.00  0.00    +0.241 C 
ATOM      9  N   PHE A   5      31.703  32.608  19.485  0.00  0.00    -0.298 N 
ATOM     10  H   PHE A   5      31.689  33.256  20.298  0.00  0.00    +0.150 HD
ATOM     11  O   ASP A   4      31.078  30.620  18.643  0.00  0.00    -0.273 OA
BRANCH   9  12
ATOM     12  CA  PHE A   5      32.312  33.027  18.245  0.00  0.00    +0.141 C 
BRANCH  12  13
ATOM     13  C   PHE A   5      33.420  34.065  18.408  0.00  0.00    +0.227 C 
ATOM     14  O   PHE A   5      33.430  34.832  19.374  0.00  0.00    -0.286 OA
ENDBRANCH  12  13
BRANCH  12  15
ATOM     15  CB  PHE A   5      31.223  33.575  17.335  0.00  0.00    +0.054 C 
BRANCH  15  16
ATOM     16  CG  PHE A   5      30.861  35.012  17.601  0.00  0.00    -0.020 A 
ATOM     17  CD2 PHE A   5      29.975  35.333  18.617  0.00  0.00    -0.004 A 
ATOM     18  CE2 PHE A   5      29.476  36.597  18.734  0.00  0.00    -0.000 A 
ATOM     19  CZ  PHE A   5      29.894  37.573  17.863  0.00  0.00    -0.000 A 
ATOM     20  CE1 PHE A   5      30.767  37.266  16.826  0.00  0.00    -0.000 A 
ATOM     21  CD1 PHE A   5      31.264  36.006  16.718  0.00  0.00    -0.004 A 
ENDBRANCH  15  16
ENDBRANCH  12  15
ENDBRANCH   9  12
ENDBRANCH   7   8
BRANCH   7  22
ATOM     22  CB  ASP A   4      29.814  29.745  20.870  0.00  0.00    +0.143 C 
BRANCH  22  23
ATOM     23  CG  ASP A   4      30.785  28.593  20.617  0.00  0.00    +0.367 C 
ATOM     24  OD2 ASP A   4      32.016  28.797  20.745  0.00  0.00    -0.246 OA
ATOM     25  OD1 ASP A   4      30.297  27.474  20.304  0.00  0.00    -0.246 OA
ENDBRANCH  22  23
ENDBRANCH   7  22
ENDBRANCH   4   7
ENDBRANCH   1   3
BRANCH   1  28
ATOM     26  C   LEU A   2      25.879  34.968  20.465  0.00  0.00    +0.241 C 
ATOM     27  O   LEU A   2      26.271  35.794  21.261  0.00  0.00    -0.273 OA
ATOM     28  N   ALA A   3      26.280  33.694  20.510  0.00  0.00    -0.297 N 
ATOM     29  H   ALA A   3      25.799  32.990  19.915  0.00  0.00    +0.150 HD
BRANCH  26  30
ATOM     30  CA  LEU A   2      24.820  35.327  19.443  0.00  0.00    +0.149 C 
BRANCH  30  33
ATOM     31  C   LYS A   1      22.797  35.739  20.824  0.00  0.00    +0.238 C 
ATOM     32  O   LYS A   1      22.653  34.572  21.160  0.00  0.00    -0.274 OA
ATOM     33  N   LEU A   2      23.727  36.164  19.965  0.00  0.00    -0.297 N 
ATOM     34  H   LEU A   2      23.676  37.152  19.643  0.00  0.00    +0.150 HD
BRANCH  31  35
ATOM     35  CA  LYS A   1      21.898  36.790  21.453  0.00  0.00    +0.145 C 
BRANCH  35  36
ATOM     36  N   LYS A   1      20.522  36.252  21.528  0.00  0.00    -0.238 NA
ATOM     37  H   LYS A   1      20.366  35.275  21.848  0.00  0.00    +0.142 HD
ENDBRANCH  35  36
BRANCH  35  38
ATOM     38  CB  LYS A   1      22.444  37.094  22.857  0.00  0.00    +0.026 C 
BRANCH  38  39
ATOM     39  CG  LYS A   1      21.559  37.984  23.714  0.00  0.00    -0.000 C 
BRANCH  39  40
ATOM     40  CD  LYS A   1      22.432  38.906  24.579  0.00  0.00    -0.024 C 
BRANCH  40  41
ATOM     41  CE  LYS A   1      21.615  39.815  25.521  0.00  0.00    -0.086 C 
BRANCH  41  42
ATOM     42  NZ  LYS A   1      22.562  40.572  26.463  0.00  0.00    +0.380 N 
ATOM     43  HZ1 LYS A   1      22.006  41.182  27.095  0.00  0.00    -0.089 HD
ATOM     44  HZ2 LYS A   1      23.105  39.889  27.029  0.00  0.00    -0.089 HD
ATOM     45  HZ3 LYS A   1      23.214  41.155  25.901  0.00  0.00    -0.089 HD
ENDBRANCH  41  42
ENDBRANCH  40  41
ENDBRANCH  39  40
ENDBRANCH  38  39
ENDBRANCH  35  38
ENDBRANCH  31  35
ENDBRANCH  30  33
BRANCH  30  46
ATOM     46  CB  LEU A   2      25.546  35.990  18.265  0.00  0.00    +0.029 C 
BRANCH  46  47
ATOM     47  CG  LEU A   2      24.695  36.447  17.088  0.00  0.00    +0.002 C 
ATOM     48  CD2 LEU A   2      25.338  37.592  16.265  0.00  0.00    +0.000 C 
ATOM     49  CD1 LEU A   2      24.460  35.264  16.249  0.00  0.00    +0.000 C 
ENDBRANCH  46  47
ENDBRANCH  30  46
ENDBRANCH  26  30
ENDBRANCH   1  28
TORSDOF 21
REMARK  Name = ../refined-set-2016/2xnb/2xnb_pocket.pdb
REMARK  227 active torsions:
REMARK  status: ('A' for Active; 'I' for Inactive)
REMARK    1  A    between atoms: _1  and  _3
REMARK    2  A    between atoms: _3  and  _4
REMARK    3  A    between atoms: _3  and  _6
REMARK    4  A    between atoms: _6  and  _7
REMARK    5  A    between atoms: _7  and  _8
REMARK    6  A    between atoms: _11  and  _13
REMARK    7  A    between atoms: _13  and  _14
REMARK    8  A    between atoms: _13  and  _16
REMARK    9  A    between atoms: _16  and  _17
REMARK   10  A    between atoms: _17  and  _18
REMARK   11  A    between atoms: _18  and  _19
REMARK   12  A    between atoms: _19  and  _20
REMARK   13  A    between atoms: _24  and  _26
REMARK   14  A    between atoms: _26  and  _27
REMARK   15  A    between atoms: _26  and  _29
REMARK   16  A    between atoms: _29  and  _30
REMARK   17  A    between atoms: _33  and  _35
REMARK   18  A    between atoms: _35  and  _36
REMARK   19  A    between atoms: _38  and  _40
REMARK   20  A    between atoms: _40  and  _41
REMARK   21  A    between atoms: _40  and  _43
REMARK   22  A    between atoms: _43  and  _44
REMARK   23  A    between atoms: _44  and  _45
REMARK   24  A    between atoms: _48  and  _50
REMARK   25  A    between atoms: _50  and  _51
REMARK   26  A    between atoms: _53  and  _55
REMARK   27  A    between atoms: _55  and  _56
REMARK   28  A    between atoms: _55  and  _58
REMARK   29  A    between atoms: _58  and  _59
REMARK   30  A    between atoms: _62  and  _64
REMARK   31  A    between atoms: _64  and  _65
REMARK   32  A    between atoms: _64  and  _67
REMARK   33  A    between atoms: _67  and  _68
REMARK   34  A    between atoms: _73  and  _74
REMARK   35  A    between atoms: _76  and  _78
REMARK   36  A    between atoms: _78  and  _79
REMARK   37  A    between atoms: _81  and  _83
REMARK   38  A    between atoms: _83  and  _84
REMARK   39  A    between atoms: _83  and  _86
REMARK   40  A    between atoms: _89  and  _91
REMARK   41  A    between atoms: _91  and  _92
REMARK   42  A    between atoms: _91  and  _94
REMARK   43  A    between atoms: _97  and  _99
REMARK   44  A    between atoms: _99  and  _100
REMARK   45  A    between atoms: _99  and  _102
REMARK   46  A    between atoms: _102  and  _103
REMARK   47  A    between atoms: _108  and  _109
REMARK   48  A    between atoms: _111  and  _113
REMARK   49  A    between atoms: _113  and  _114
REMARK   50  A    between atoms: _113  and  _116
REMARK   51  A    between atoms: _116  and  _117
REMARK   52  A    between atoms: _117  and  _118
REMARK   53  A    between atoms: _118  and  _119
REMARK   54  A    between atoms: _119  and  _120
REMARK   55  A    between atoms: _124  and  _126
REMARK   56  A    between atoms: _126  and  _127
REMARK   57  A    between atoms: _126  and  _129
REMARK   58  A    between atoms: _132  and  _134
REMARK   59  A    between atoms: _134  and  _135
REMARK   60  A    between atoms: _134  and  _137
REMARK   61  A    between atoms: _140  and  _142
REMARK   62  A    between atoms: _142  and  _143
REMARK   63  A    between atoms: _146  and  _148
REMARK   64  A    between atoms: _148  and  _149
REMARK   65  A    between atoms: _148  and  _151
REMARK   66  A    between atoms: _151  and  _152
REMARK   67  A    between atoms: _155  and  _157
REMARK   68  A    between atoms: _157  and  _158
REMARK   69  A    between atoms: _157  and  _160
REMARK   70  A    between atoms: _160  and  _161
REMARK   71  A    between atoms: _161  and  _162
REMARK   72  A    between atoms: _162  and  _163
REMARK   73  A    between atoms: _163  and  _164
REMARK   74  A    between atoms: _168  and  _170
REMARK   75  A    between atoms: _170  and  _171
REMARK   76  A    between atoms: _170  and  _173
REMARK   77  A    between atoms: _173  and  _174
REMARK   78  A    between atoms: _174  and  _175
REMARK   79  A    between atoms: _175  and  _176
REMARK   80  A    between atoms: _176  and  _177
REMARK   81  A    between atoms: _181  and  _183
REMARK   82  A    between atoms: _183  and  _184
REMARK   83  A    between atoms: _183  and  _186
REMARK   84  A    between atoms: _186  and  _187
REMARK   85  A    between atoms: _190  and  _192
REMARK   86  A    between atoms: _192  and  _193
REMARK   87  A    between atoms: _192  and  _195
REMARK   88  A    between atoms: _198  and  _200
REMARK   89  A    between atoms: _200  and  _201
REMARK   90  A    between atoms: _200  and  _203
REMARK   91  A    between atoms: _203  and  _204
REMARK   92  A    between atoms: _204  and  _205
REMARK   93  A    between atoms: _205  and  _206
REMARK   94  A    between atoms: _206  and  _207
REMARK   95  A    between atoms: _211  and  _213
REMARK   96  A    between atoms: _213  and  _214
REMARK   97  A    between atoms: _213  and  _216
REMARK   98  A    between atoms: _216  and  _217
REMARK   99  A    between atoms: _220  and  _222
REMARK  100  A    between atoms: _222  and  _223
REMARK  101  A    between atoms: _222  and  _225
REMARK  102  A    between atoms: _225  and  _226
REMARK  103  A    between atoms: _229  and  _231
REMARK  104  A    between atoms: _231  and  _232
REMARK  105  A    between atoms: _231  and  _234
REMARK  106  A    between atoms: _234  and  _235
REMARK  107  A    between atoms: _238  and  _240
REMARK  108  A    between atoms: _240  and  _241
REMARK  109  A    between atoms: _240  and  _243
REMARK  110  A    between atoms: _246  and  _248
REMARK  111  A    between atoms: _248  and  _249
REMARK  112  A    between atoms: _248  and  _251
REMARK  113  A    between atoms: _251  and  _252
REMARK  114  A    between atoms: _258  and  _260
REMARK  115  A    between atoms: _260  and  _261
REMARK  116  A    between atoms: _260  and  _263
REMARK  117  A    between atoms: _263  and  _264
REMARK  118  A    between atoms: _264  and  _265
REMARK  119  A    between atoms: _268  and  _270
REMARK  120  A    between atoms: _270  and  _271
REMARK  121  A    between atoms: _270  and  _273
REMARK  122  A    between atoms: _273  and  _274
REMARK  123  A    between atoms: _280  and  _282
REMARK  124  A    between atoms: _282  and  _283
REMARK  125  A    between atoms: _282  and  _285
REMARK  126  A    between atoms: _285  and  _286
REMARK  127  A    between atoms: _289  and  _291
REMARK  128  A    between atoms: _291  and  _292
REMARK  129  A    between atoms: _291  and  _294
REMARK  130  A    between atoms: _294  and  _295
REMARK  131  A    between atoms: _300  and  _302
REMARK  132  A    between atoms: _302  and  _303
REMARK  133  A    between atoms: _302  and  _305
REMARK  134  A    between atoms: _305  and  _306
REMARK  135  A    between atoms: _306  and  _307
REMARK  136  A    between atoms: _312  and  _314
REMARK  137  A    between atoms: _314  and  _315
REMARK  138  A    between atoms: _314  and  _317
REMARK  139  A    between atoms: _317  and  _318
REMARK  140  A    between atoms: _321  and  _323
REMARK  141  A    between atoms: _323  and  _324
REMARK  142  A    between atoms: _323  and  _326
REMARK  143  A    between atoms: _326  and  _327
REMARK  144  A    between atoms: _330  and  _332
REMARK  145  A    between atoms: _332  and  _333
REMARK  146  A    between atoms: _332  and  _335
REMARK  147  A    between atoms: _335  and  _336
REMARK  148  A    between atoms: _336  and  _337
REMARK  149  A    between atoms: _337  and  _338
REMARK  150  A    between atoms: _338  and  _339
REMARK  151  A    between atoms: _343  and  _345
REMARK  152  A    between atoms: _345  and  _346
REMARK  153  A    between atoms: _345  and  _348
REMARK  154  A    between atoms: _348  and  _349
REMARK  155  A    between atoms: _349  and  _350
REMARK  156  A    between atoms: _350  and  _351
REMARK  157  A    between atoms: _351  and  _352
REMARK  158  A    between atoms: _356  and  _358
REMARK  159  A    between atoms: _358  and  _359
REMARK  160  A    between atoms: _358  and  _361
REMARK  161  A    between atoms: _361  and  _362
REMARK  162  A    between atoms: _368  and  _370
REMARK  163  A    between atoms: _370  and  _371
REMARK  164  A    between atoms: _370  and  _373
REMARK  165  A    between atoms: _373  and  _374
REMARK  166  A    between atoms: _377  and  _379
REMARK  167  A    between atoms: _379  and  _380
REMARK  168  A    between atoms: _379  and  _382
REMARK  169  A    between atoms: _382  and  _383
REMARK  170  A    between atoms: _388  and  _390
REMARK  171  A    between atoms: _390  and  _391
REMARK  172  A    between atoms: _390  and  _393
REMARK  173  A    between atoms: _393  and  _394
REMARK  174  A    between atoms: _394  and  _395
REMARK  175  A    between atoms: _395  and  _396
REMARK  176  A    between atoms: _396  and  _397
REMARK  177  A    between atoms: _402  and  _403
REMARK  178  A    between atoms: _408  and  _410
REMARK  179  A    between atoms: _410  and  _411
REMARK  180  A    between atoms: _410  and  _413
REMARK  181  A    between atoms: _413  and  _414
REMARK  182  A    between atoms: _414  and  _415
REMARK  183  A    between atoms: _420  and  _422
REMARK  184  A    between atoms: _422  and  _423
REMARK  185  A    between atoms: _422  and  _425
REMARK  186  A    between atoms: _425  and  _426
REMARK  187  A    between atoms: _431  and  _433
REMARK  188  A    between atoms: _433  and  _434
REMARK  189  A    between atoms: _433  and  _436
REMARK  190  A    between atoms: _436  and  _437
REMARK  191  A    between atoms: _440  and  _442
REMARK  192  A    between atoms: _442  and  _443
REMARK  193  A    between atoms: _442  and  _445
REMARK  194  A    between atoms: _445  and  _446
REMARK  195  A    between atoms: _449  and  _451
REMARK  196  A    between atoms: _451  and  _452
REMARK  197  A    between atoms: _451  and  _454
REMARK  198  A    between atoms: _454  and  _455
REMARK  199  A    between atoms: _458  and  _460
REMARK  200  A    between atoms: _460  and  _461
REMARK  201  A    between atoms: _460  and  _463
REMARK  202  A    between atoms: _463  and  _464
REMARK  203  A    between atoms: _464  and  _465
REMARK  204  A    between atoms: _465  and  _466
REMARK  205  A    between atoms: _466  and  _467
REMARK  206  A    between atoms: _471  and  _473
REMARK  207  A    between atoms: _473  and  _474
REMARK  208  A    between atoms: _473  and  _476
REMARK  209  A    between atoms: _476  and  _477
REMARK  210  A    between atoms: _480  and  _482
REMARK  211  A    between atoms: _482  and  _483
REMARK  212  A    between atoms: _486  and  _488
REMARK  213  A    between atoms: _488  and  _489
REMARK  214  A    between atoms: _488  and  _491
REMARK  215  A    between atoms: _491  and  _492
REMARK  216  A    between atoms: _495  and  _497
REMARK  217  A    between atoms: _497  and  _498
REMARK  218  A    between atoms: _497  and  _500
REMARK  219  A    between atoms: _500  and  _501
REMARK  220  A    between atoms: _507  and  _509
REMARK  221  A    between atoms: _509  and  _510
REMARK  222  A    between atoms: _509  and  _512
REMARK  223  A    between atoms: _512  and  _513
REMARK  224  A    between atoms: _516  and  _518
REMARK  225  A    between atoms: _518  and  _519
REMARK  226  A    between atoms: _518  and  _521
REMARK  227  A    between atoms: _521  and  _522
REMARK                            x       y       z     vdW  Elec       q    Type
REMARK                         _______ _______ _______ _____ _____    ______ ____
ROOT
ATOM      1  CA  LEU A   1      36.807  31.808  19.348  0.00  0.00    +0.133 C 
ENDROOT
BRANCH   1   2
ATOM      2  N   LEU A   1      35.999  32.896  18.842  0.00  0.00    -0.239 NA
ATOM      3  H   LEU A   1      34.973  32.898  19.014  0.00  0.00    +0.142 HD
ENDBRANCH   1   2
BRANCH   1   4
ATOM      4  C   LEU A   1      37.532  31.150  18.160  0.00  0.00    +0.224 C 
ATOM      5  O   LEU A   1      38.767  31.130  18.143  0.00  0.00    -0.287 OA
ENDBRANCH   1   4
BRANCH   1   6
ATOM      6  CB  LEU A   1      35.938  30.835  20.170  0.00  0.00    +0.025 C 
BRANCH   6   7
ATOM      7  CG  LEU A   1      35.390  31.348  21.519  0.00  0.00    +0.002 C 
ATOM      8  CD2 LEU A   1      34.438  30.341  22.150  0.00  0.00    +0.000 C 
ATOM      9  CD1 LEU A   1      34.692  32.706  21.418  0.00  0.00    +0.000 C 
ENDBRANCH   6   7
ENDBRANCH   1   6
TORSDOF 4
REMARK  Name = ../refined-set-2016/2xnb/2xnb_pocket.pdb
REMARK  227 active torsions:
REMARK  status: ('A' for Active; 'I' for Inactive)
REMARK    1  A    between atoms: _1  and  _3
REMARK    2  A    between atoms: _3  and  _4
REMARK    3  A    between atoms: _3  and  _6
REMARK    4  A    between atoms: _6  and  _7
REMARK    5  A    between atoms: _7  and  _8
REMARK    6  A    between atoms: _11  and  _13
REMARK    7  A    between atoms: _13  and  _14
REMARK    8  A    between atoms: _13  and  _16
REMARK    9  A    between atoms: _16  and  _17
REMARK   10  A    between atoms: _17  and  _18
REMARK   11  A    between atoms: _18  and  _19
REMARK   12  A    between atoms: _19  and  _20
REMARK   13  A    between atoms: _24  and  _26
REMARK   14  A    between atoms: _26  and  _27
REMARK   15  A    between atoms: _26  and  _29
REMARK   16  A    between atoms: _29  and  _30
REMARK   17  A    between atoms: _33  and  _35
REMARK   18  A    between atoms: _35  and  _36
REMARK   19  A    between atoms: _38  and  _40
REMARK   20  A    between atoms: _40  and  _41
REMARK   21  A    between atoms: _40  and  _43
REMARK   22  A    between atoms: _43  and  _44
REMARK   23  A    between atoms: _44  and  _45
REMARK   24  A    between atoms: _48  and  _50
REMARK   25  A    between atoms: _50  and  _51
REMARK   26  A    between atoms: _53  and  _55
REMARK   27  A    between atoms: _55  and  _56
REMARK   28  A    between atoms: _55  and  _58
REMARK   29  A    between atoms: _58  and  _59
REMARK   30  A    between atoms: _62  and  _64
REMARK   31  A    between atoms: _64  and  _65
REMARK   32  A    between atoms: _64  and  _67
REMARK   33  A    between atoms: _67  and  _68
REMARK   34  A    between atoms: _73  and  _74
REMARK   35  A    between atoms: _76  and  _78
REMARK   36  A    between atoms: _78  and  _79
REMARK   37  A    between atoms: _81  and  _83
REMARK   38  A    between atoms: _83  and  _84
REMARK   39  A    between atoms: _83  and  _86
REMARK   40  A    between atoms: _89  and  _91
REMARK   41  A    between atoms: _91  and  _92
REMARK   42  A    between atoms: _91  and  _94
REMARK   43  A    between atoms: _97  and  _99
REMARK   44  A    between atoms: _99  and  _100
REMARK   45  A    between atoms: _99  and  _102
REMARK   46  A    between atoms: _102  and  _103
REMARK   47  A    between atoms: _108  and  _109
REMARK   48  A    between atoms: _111  and  _113
REMARK   49  A    between atoms: _113  and  _114
REMARK   50  A    between atoms: _113  and  _116
REMARK   51  A    between atoms: _116  and  _117
REMARK   52  A    between atoms: _117  and  _118
REMARK   53  A    between atoms: _118  and  _119
REMARK   54  A    between atoms: _119  and  _120
REMARK   55  A    between atoms: _124  and  _126
REMARK   56  A    between atoms: _126  and  _127
REMARK   57  A    between atoms: _126  and  _129
REMARK   58  A    between atoms: _132  and  _134
REMARK   59  A    between atoms: _134  and  _135
REMARK   60  A    between atoms: _134  and  _137
REMARK   61  A    between atoms: _140  and  _142
REMARK   62  A    between atoms: _142  and  _143
REMARK   63  A    between atoms: _146  and  _148
REMARK   64  A    between atoms: _148  and  _149
REMARK   65  A    between atoms: _148  and  _151
REMARK   66  A    between atoms: _151  and  _152
REMARK   67  A    between atoms: _155  and  _157
REMARK   68  A    between atoms: _157  and  _158
REMARK   69  A    between atoms: _157  and  _160
REMARK   70  A    between atoms: _160  and  _161
REMARK   71  A    between atoms: _161  and  _162
REMARK   72  A    between atoms: _162  and  _163
REMARK   73  A    between atoms: _163  and  _164
REMARK   74  A    between atoms: _168  and  _170
REMARK   75  A    between atoms: _170  and  _171
REMARK   76  A    between atoms: _170  and  _173
REMARK   77  A    between atoms: _173  and  _174
REMARK   78  A    between atoms: _174  and  _175
REMARK   79  A    between atoms: _175  and  _176
REMARK   80  A    between atoms: _176  and  _177
REMARK   81  A    between atoms: _181  and  _183
REMARK   82  A    between atoms: _183  and  _184
REMARK   83  A    between atoms: _183  and  _186
REMARK   84  A    between atoms: _186  and  _187
REMARK   85  A    between atoms: _190  and  _192
REMARK   86  A    between atoms: _192  and  _193
REMARK   87  A    between atoms: _192  and  _195
REMARK   88  A    between atoms: _198  and  _200
REMARK   89  A    between atoms: _200  and  _201
REMARK   90  A    between atoms: _200  and  _203
REMARK   91  A    between atoms: _203  and  _204
REMARK   92  A    between atoms: _204  and  _205
REMARK   93  A    between atoms: _205  and  _206
REMARK   94  A    between atoms: _206  and  _207
REMARK   95  A    between atoms: _211  and  _213
REMARK   96  A    between atoms: _213  and  _214
REMARK   97  A    between atoms: _213  and  _216
REMARK   98  A    between atoms: _216  and  _217
REMARK   99  A    between atoms: _220  and  _222
REMARK  100  A    between atoms: _222  and  _223
REMARK  101  A    between atoms: _222  and  _225
REMARK  102  A    between atoms: _225  and  _226
REMARK  103  A    between atoms: _229  and  _231
REMARK  104  A    between atoms: _231  and  _232
REMARK  105  A    between atoms: _231  and  _234
REMARK  106  A    between atoms: _234  and  _235
REMARK  107  A    between atoms: _238  and  _240
REMARK  108  A    between atoms: _240  and  _241
REMARK  109  A    between atoms: _240  and  _243
REMARK  110  A    between atoms: _246  and  _248
REMARK  111  A    between atoms: _248  and  _249
REMARK  112  A    between atoms: _248  and  _251
REMARK  113  A    between atoms: _251  and  _252
REMARK  114  A    between atoms: _258  and  _260
REMARK  115  A    between atoms: _260  and  _261
REMARK  116  A    between atoms: _260  and  _263
REMARK  117  A    between atoms: _263  and  _264
REMARK  118  A    between atoms: _264  and  _265
REMARK  119  A    between atoms: _268  and  _270
REMARK  120  A    between atoms: _270  and  _271
REMARK  121  A    between atoms: _270  and  _273
REMARK  122  A    between atoms: _273  and  _274
REMARK  123  A    between atoms: _280  and  _282
REMARK  124  A    between atoms: _282  and  _283
REMARK  125  A    between atoms: _282  and  _285
REMARK  126  A    between atoms: _285  and  _286
REMARK  127  A    between atoms: _289  and  _291
REMARK  128  A    between atoms: _291  and  _292
REMARK  129  A    between atoms: _291  and  _294
REMARK  130  A    between atoms: _294  and  _295
REMARK  131  A    between atoms: _300  and  _302
REMARK  132  A    between atoms: _302  and  _303
REMARK  133  A    between atoms: _302  and  _305
REMARK  134  A    between atoms: _305  and  _306
REMARK  135  A    between atoms: _306  and  _307
REMARK  136  A    between atoms: _312  and  _314
REMARK  137  A    between atoms: _314  and  _315
REMARK  138  A    between atoms: _314  and  _317
REMARK  139  A    between atoms: _317  and  _318
REMARK  140  A    between atoms: _321  and  _323
REMARK  141  A    between atoms: _323  and  _324
REMARK  142  A    between atoms: _323  and  _326
REMARK  143  A    between atoms: _326  and  _327
REMARK  144  A    between atoms: _330  and  _332
REMARK  145  A    between atoms: _332  and  _333
REMARK  146  A    between atoms: _332  and  _335
REMARK  147  A    between atoms: _335  and  _336
REMARK  148  A    between atoms: _336  and  _337
REMARK  149  A    between atoms: _337  and  _338
REMARK  150  A    between atoms: _338  and  _339
REMARK  151  A    between atoms: _343  and  _345
REMARK  152  A    between atoms: _345  and  _346
REMARK  153  A    between atoms: _345  and  _348
REMARK  154  A    between atoms: _348  and  _349
REMARK  155  A    between atoms: _349  and  _350
REMARK  156  A    between atoms: _350  and  _351
REMARK  157  A    between atoms: _351  and  _352
REMARK  158  A    between atoms: _356  and  _358
REMARK  159  A    between atoms: _358  and  _359
REMARK  160  A    between atoms: _358  and  _361
REMARK  161  A    between atoms: _361  and  _362
REMARK  162  A    between atoms: _368  and  _370
REMARK  163  A    between atoms: _370  and  _371
REMARK  164  A    between atoms: _370  and  _373
REMARK  165  A    between atoms: _373  and  _374
REMARK  166  A    between atoms: _377  and  _379
REMARK  167  A    between atoms: _379  and  _380
REMARK  168  A    between atoms: _379  and  _382
REMARK  169  A    between atoms: _382  and  _383
REMARK  170  A    between atoms: _388  and  _390
REMARK  171  A    between atoms: _390  and  _391
REMARK  172  A    between atoms: _390  and  _393
REMARK  173  A    between atoms: _393  and  _394
REMARK  174  A    between atoms: _394  and  _395
REMARK  175  A    between atoms: _395  and  _396
REMARK  176  A    between atoms: _396  and  _397
REMARK  177  A    between atoms: _402  and  _403
REMARK  178  A    between atoms: _408  and  _410
REMARK  179  A    between atoms: _410  and  _411
REMARK  180  A    between atoms: _410  and  _413
REMARK  181  A    between atoms: _413  and  _414
REMARK  182  A    between atoms: _414  and  _415
REMARK  183  A    between atoms: _420  and  _422
REMARK  184  A    between atoms: _422  and  _423
REMARK  185  A    between atoms: _422  and  _425
REMARK  186  A    between atoms: _425  and  _426
REMARK  187  A    between atoms: _431  and  _433
REMARK  188  A    between atoms: _433  and  _434
REMARK  189  A    between atoms: _433  and  _436
REMARK  190  A    between atoms: _436  and  _437
REMARK  191  A    between atoms: _440  and  _442
REMARK  192  A    between atoms: _442  and  _443
REMARK  193  A    between atoms: _442  and  _445
REMARK  194  A    between atoms: _445  and  _446
REMARK  195  A    between atoms: _449  and  _451
REMARK  196  A    between atoms: _451  and  _452
REMARK  197  A    between atoms: _451  and  _454
REMARK  198  A    between atoms: _454  and  _455
REMARK  199  A    between atoms: _458  and  _460
REMARK  200  A    between atoms: _460  and  _461
REMARK  201  A    between atoms: _460  and  _463
REMARK  202  A    between atoms: _463  and  _464
REMARK  203  A    between atoms: _464  and  _465
REMARK  204  A    between atoms: _465  and  _466
REMARK  205  A    between atoms: _466  and  _467
REMARK  206  A    between atoms: _471  and  _473
REMARK  207  A    between atoms: _473  and  _474
REMARK  208  A    between atoms: _473  and  _476
REMARK  209  A    between atoms: _476  and  _477
REMARK  210  A    between atoms: _480  and  _482
REMARK  211  A    between atoms: _482  and  _483
REMARK  212  A    between atoms: _486  and  _488
REMARK  213  A    between atoms: _488  and  _489
REMARK  214  A    between atoms: _488  and  _491
REMARK  215  A    between atoms: _491  and  _492
REMARK  216  A    between atoms: _495  and  _497
REMARK  217  A    between atoms: _497  and  _498
REMARK  218  A    between atoms: _497  and  _500
REMARK  219  A    between atoms: _500  and  _501
REMARK  220  A    between atoms: _507  and  _509
REMARK  221  A    between atoms: _509  and  _510
REMARK  222  A    between atoms: _509  and  _512
REMARK  223  A    between atoms: _512  and  _513
REMARK  224  A    between atoms: _516  and  _518
REMARK  225  A    between atoms: _518  and  _519
REMARK  226  A    between atoms: _518  and  _521
REMARK  227  A    between atoms: _521  and  _522
REMARK                            x       y       z     vdW  Elec       q    Type
REMARK                         _______ _______ _______ _____ _____    ______ ____
ROOT
ATOM      1  CA  LEU A   1      13.403  28.148  33.742  0.00  0.00    +0.172 C 
ENDROOT
BRANCH   1   2
ATOM      2  C   LEU A   1      12.840  27.746  35.119  0.00  0.00    +0.380 C 
ATOM      3  OXT LEU A   1      12.089  28.499  35.755  0.00  0.00    -0.244 OA
ATOM      4  O   LEU A   1      13.174  26.699  35.685  0.00  0.00    -0.244 OA
ENDBRANCH   1   2
BRANCH   1   5
ATOM      5  N   LEU A   1      12.418  27.988  32.642  0.00  0.00    -0.236 NA
ATOM      6  H   LEU A   1      11.981  28.851  32.260  0.00  0.00    +0.142 HD
ENDBRANCH   1   5
BRANCH   1   7
ATOM      7  CB  LEU A   1      13.901  29.609  33.856  0.00  0.00    +0.029 C 
BRANCH   7   8
ATOM      8  CG  LEU A   1      14.354  30.467  32.665  0.00  0.00    +0.002 C 
ATOM      9  CD2 LEU A   1      14.918  31.800  33.153  0.00  0.00    +0.000 C 
ATOM     10  CD1 LEU A   1      15.367  29.768  31.782  0.00  0.00    +0.000 C 
ENDBRANCH   7   8
ENDBRANCH   1   7
TORSDOF 4
REMARK  Name = ../refined-set-2016/2xnb/2xnb_pocket.pdb
REMARK  227 active torsions:
REMARK  status: ('A' for Active; 'I' for Inactive)
REMARK    1  A    between atoms: _1  and  _3
REMARK    2  A    between atoms: _3  and  _4
REMARK    3  A    between atoms: _3  and  _6
REMARK    4  A    between atoms: _6  and  _7
REMARK    5  A    between atoms: _7  and  _8
REMARK    6  A    between atoms: _11  and  _13
REMARK    7  A    between atoms: _13  and  _14
REMARK    8  A    between atoms: _13  and  _16
REMARK    9  A    between atoms: _16  and  _17
REMARK   10  A    between atoms: _17  and  _18
REMARK   11  A    between atoms: _18  and  _19
REMARK   12  A    between atoms: _19  and  _20
REMARK   13  A    between atoms: _24  and  _26
REMARK   14  A    between atoms: _26  and  _27
REMARK   15  A    between atoms: _26  and  _29
REMARK   16  A    between atoms: _29  and  _30
REMARK   17  A    between atoms: _33  and  _35
REMARK   18  A    between atoms: _35  and  _36
REMARK   19  A    between atoms: _38  and  _40
REMARK   20  A    between atoms: _40  and  _41
REMARK   21  A    between atoms: _40  and  _43
REMARK   22  A    between atoms: _43  and  _44
REMARK   23  A    between atoms: _44  and  _45
REMARK   24  A    between atoms: _48  and  _50
REMARK   25  A    between atoms: _50  and  _51
REMARK   26  A    between atoms: _53  and  _55
REMARK   27  A    between atoms: _55  and  _56
REMARK   28  A    between atoms: _55  and  _58
REMARK   29  A    between atoms: _58  and  _59
REMARK   30  A    between atoms: _62  and  _64
REMARK   31  A    between atoms: _64  and  _65
REMARK   32  A    between atoms: _64  and  _67
REMARK   33  A    between atoms: _67  and  _68
REMARK   34  A    between atoms: _73  and  _74
REMARK   35  A    between atoms: _76  and  _78
REMARK   36  A    between atoms: _78  and  _79
REMARK   37  A    between atoms: _81  and  _83
REMARK   38  A    between atoms: _83  and  _84
REMARK   39  A    between atoms: _83  and  _86
REMARK   40  A    between atoms: _89  and  _91
REMARK   41  A    between atoms: _91  and  _92
REMARK   42  A    between atoms: _91  and  _94
REMARK   43  A    between atoms: _97  and  _99
REMARK   44  A    between atoms: _99  and  _100
REMARK   45  A    between atoms: _99  and  _102
REMARK   46  A    between atoms: _102  and  _103
REMARK   47  A    between atoms: _108  and  _109
REMARK   48  A    between atoms: _111  and  _113
REMARK   49  A    between atoms: _113  and  _114
REMARK   50  A    between atoms: _113  and  _116
REMARK   51  A    between atoms: _116  and  _117
REMARK   52  A    between atoms: _117  and  _118
REMARK   53  A    between atoms: _118  and  _119
REMARK   54  A    between atoms: _119  and  _120
REMARK   55  A    between atoms: _124  and  _126
REMARK   56  A    between atoms: _126  and  _127
REMARK   57  A    between atoms: _126  and  _129
REMARK   58  A    between atoms: _132  and  _134
REMARK   59  A    between atoms: _134  and  _135
REMARK   60  A    between atoms: _134  and  _137
REMARK   61  A    between atoms: _140  and  _142
REMARK   62  A    between atoms: _142  and  _143
REMARK   63  A    between atoms: _146  and  _148
REMARK   64  A    between atoms: _148  and  _149
REMARK   65  A    between atoms: _148  and  _151
REMARK   66  A    between atoms: _151  and  _152
REMARK   67  A    between atoms: _155  and  _157
REMARK   68  A    between atoms: _157  and  _158
REMARK   69  A    between atoms: _157  and  _160
REMARK   70  A    between atoms: _160  and  _161
REMARK   71  A    between atoms: _161  and  _162
REMARK   72  A    between atoms: _162  and  _163
REMARK   73  A    between atoms: _163  and  _164
REMARK   74  A    between atoms: _168  and  _170
REMARK   75  A    between atoms: _170  and  _171
REMARK   76  A    between atoms: _170  and  _173
REMARK   77  A    between atoms: _173  and  _174
REMARK   78  A    between atoms: _174  and  _175
REMARK   79  A    between atoms: _175  and  _176
REMARK   80  A    between atoms: _176  and  _177
REMARK   81  A    between atoms: _181  and  _183
REMARK   82  A    between atoms: _183  and  _184
REMARK   83  A    between atoms: _183  and  _186
REMARK   84  A    between atoms: _186  and  _187
REMARK   85  A    between atoms: _190  and  _192
REMARK   86  A    between atoms: _192  and  _193
REMARK   87  A    between atoms: _192  and  _195
REMARK   88  A    between atoms: _198  and  _200
REMARK   89  A    between atoms: _200  and  _201
REMARK   90  A    between atoms: _200  and  _203
REMARK   91  A    between atoms: _203  and  _204
REMARK   92  A    between atoms: _204  and  _205
REMARK   93  A    between atoms: _205  and  _206
REMARK   94  A    between atoms: _206  and  _207
REMARK   95  A    between atoms: _211  and  _213
REMARK   96  A    between atoms: _213  and  _214
REMARK   97  A    between atoms: _213  and  _216
REMARK   98  A    between atoms: _216  and  _217
REMARK   99  A    between atoms: _220  and  _222
REMARK  100  A    between atoms: _222  and  _223
REMARK  101  A    between atoms: _222  and  _225
REMARK  102  A    between atoms: _225  and  _226
REMARK  103  A    between atoms: _229  and  _231
REMARK  104  A    between atoms: _231  and  _232
REMARK  105  A    between atoms: _231  and  _234
REMARK  106  A    between atoms: _234  and  _235
REMARK  107  A    between atoms: _238  and  _240
REMARK  108  A    between atoms: _240  and  _241
REMARK  109  A    between atoms: _240  and  _243
REMARK  110  A    between atoms: _246  and  _248
REMARK  111  A    between atoms: _248  and  _249
REMARK  112  A    between atoms: _248  and  _251
REMARK  113  A    between atoms: _251  and  _252
REMARK  114  A    between atoms: _258  and  _260
REMARK  115  A    between atoms: _260  and  _261
REMARK  116  A    between atoms: _260  and  _263
REMARK  117  A    between atoms: _263  and  _264
REMARK  118  A    between atoms: _264  and  _265
REMARK  119  A    between atoms: _268  and  _270
REMARK  120  A    between atoms: _270  and  _271
REMARK  121  A    between atoms: _270  and  _273
REMARK  122  A    between atoms: _273  and  _274
REMARK  123  A    between atoms: _280  and  _282
REMARK  124  A    between atoms: _282  and  _283
REMARK  125  A    between atoms: _282  and  _285
REMARK  126  A    between atoms: _285  and  _286
REMARK  127  A    between atoms: _289  and  _291
REMARK  128  A    between atoms: _291  and  _292
REMARK  129  A    between atoms: _291  and  _294
REMARK  130  A    between atoms: _294  and  _295
REMARK  131  A    between atoms: _300  and  _302
REMARK  132  A    between atoms: _302  and  _303
REMARK  133  A    between atoms: _302  and  _305
REMARK  134  A    between atoms: _305  and  _306
REMARK  135  A    between atoms: _306  and  _307
REMARK  136  A    between atoms: _312  and  _314
REMARK  137  A    between atoms: _314  and  _315
REMARK  138  A    between atoms: _314  and  _317
REMARK  139  A    between atoms: _317  and  _318
REMARK  140  A    between atoms: _321  and  _323
REMARK  141  A    between atoms: _323  and  _324
REMARK  142  A    between atoms: _323  and  _326
REMARK  143  A    between atoms: _326  and  _327
REMARK  144  A    between atoms: _330  and  _332
REMARK  145  A    between atoms: _332  and  _333
REMARK  146  A    between atoms: _332  and  _335
REMARK  147  A    between atoms: _335  and  _336
REMARK  148  A    between atoms: _336  and  _337
REMARK  149  A    between atoms: _337  and  _338
REMARK  150  A    between atoms: _338  and  _339
REMARK  151  A    between atoms: _343  and  _345
REMARK  152  A    between atoms: _345  and  _346
REMARK  153  A    between atoms: _345  and  _348
REMARK  154  A    between atoms: _348  and  _349
REMARK  155  A    between atoms: _349  and  _350
REMARK  156  A    between atoms: _350  and  _351
REMARK  157  A    between atoms: _351  and  _352
REMARK  158  A    between atoms: _356  and  _358
REMARK  159  A    between atoms: _358  and  _359
REMARK  160  A    between atoms: _358  and  _361
REMARK  161  A    between atoms: _361  and  _362
REMARK  162  A    between atoms: _368  and  _370
REMARK  163  A    between atoms: _370  and  _371
REMARK  164  A    between atoms: _370  and  _373
REMARK  165  A    between atoms: _373  and  _374
REMARK  166  A    between atoms: _377  and  _379
REMARK  167  A    between atoms: _379  and  _380
REMARK  168  A    between atoms: _379  and  _382
REMARK  169  A    between atoms: _382  and  _383
REMARK  170  A    between atoms: _388  and  _390
REMARK  171  A    between atoms: _390  and  _391
REMARK  172  A    between atoms: _390  and  _393
REMARK  173  A    between atoms: _393  and  _394
REMARK  174  A    between atoms: _394  and  _395
REMARK  175  A    between atoms: _395  and  _396
REMARK  176  A    between atoms: _396  and  _397
REMARK  177  A    between atoms: _402  and  _403
REMARK  178  A    between atoms: _408  and  _410
REMARK  179  A    between atoms: _410  and  _411
REMARK  180  A    between atoms: _410  and  _413
REMARK  181  A    between atoms: _413  and  _414
REMARK  182  A    between atoms: _414  and  _415
REMARK  183  A    between atoms: _420  and  _422
REMARK  184  A    between atoms: _422  and  _423
REMARK  185  A    between atoms: _422  and  _425
REMARK  186  A    between atoms: _425  and  _426
REMARK  187  A    between atoms: _431  and  _433
REMARK  188  A    between atoms: _433  and  _434
REMARK  189  A    between atoms: _433  and  _436
REMARK  190  A    between atoms: _436  and  _437
REMARK  191  A    between atoms: _440  and  _442
REMARK  192  A    between atoms: _442  and  _443
REMARK  193  A    between atoms: _442  and  _445
REMARK  194  A    between atoms: _445  and  _446
REMARK  195  A    between atoms: _449  and  _451
REMARK  196  A    between atoms: _451  and  _452
REMARK  197  A    between atoms: _451  and  _454
REMARK  198  A    between atoms: _454  and  _455
REMARK  199  A    between atoms: _458  and  _460
REMARK  200  A    between atoms: _460  and  _461
REMARK  201  A    between atoms: _460  and  _463
REMARK  202  A    between atoms: _463  and  _464
REMARK  203  A    between atoms: _464  and  _465
REMARK  204  A    between atoms: _465  and  _466
REMARK  205  A    between atoms: _466  and  _467
REMARK  206  A    between atoms: _471  and  _473
REMARK  207  A    between atoms: _473  and  _474
REMARK  208  A    between atoms: _473  and  _476
REMARK  209  A    between atoms: _476  and  _477
REMARK  210  A    between atoms: _480  and  _482
REMARK  211  A    between atoms: _482  and  _483
REMARK  212  A    between atoms: _486  and  _488
REMARK  213  A    between atoms: _488  and  _489
REMARK  214  A    between atoms: _488  and  _491
REMARK  215  A    between atoms: _491  and  _492
REMARK  216  A    between atoms: _495  and  _497
REMARK  217  A    between atoms: _497  and  _498
REMARK  218  A    between atoms: _497  and  _500
REMARK  219  A    between atoms: _500  and  _501
REMARK  220  A    between atoms: _507  and  _509
REMARK  221  A    between atoms: _509  and  _510
REMARK  222  A    between atoms: _509  and  _512
REMARK  223  A    between atoms: _512  and  _513
REMARK  224  A    between atoms: _516  and  _518
REMARK  225  A    between atoms: _518  and  _519
REMARK  226  A    between atoms: _518  and  _521
REMARK  227  A    between atoms: _521  and  _522
REMARK                            x       y       z     vdW  Elec       q    Type
REMARK                         _______ _______ _______ _____ _____    ______ ____
ROOT
ATOM      1  O   HOH     1      20.912  20.808  31.854  0.00  0.00    +0.000 OA
ENDROOT
TORSDOF 0
REMARK  Name = ../refined-set-2016/2xnb/2xnb_pocket.pdb
REMARK  227 active torsions:
REMARK  status: ('A' for Active; 'I' for Inactive)
REMARK    1  A    between atoms: _1  and  _3
REMARK    2  A    between atoms: _3  and  _4
REMARK    3  A    between atoms: _3  and  _6
REMARK    4  A    between atoms: _6  and  _7
REMARK    5  A    between atoms: _7  and  _8
REMARK    6  A    between atoms: _11  and  _13
REMARK    7  A    between atoms: _13  and  _14
REMARK    8  A    between atoms: _13  and  _16
REMARK    9  A    between atoms: _16  and  _17
REMARK   10  A    between atoms: _17  and  _18
REMARK   11  A    between atoms: _18  and  _19
REMARK   12  A    between atoms: _19  and  _20
REMARK   13  A    between atoms: _24  and  _26
REMARK   14  A    between atoms: _26  and  _27
REMARK   15  A    between atoms: _26  and  _29
REMARK   16  A    between atoms: _29  and  _30
REMARK   17  A    between atoms: _33  and  _35
REMARK   18  A    between atoms: _35  and  _36
REMARK   19  A    between atoms: _38  and  _40
REMARK   20  A    between atoms: _40  and  _41
REMARK   21  A    between atoms: _40  and  _43
REMARK   22  A    between atoms: _43  and  _44
REMARK   23  A    between atoms: _44  and  _45
REMARK   24  A    between atoms: _48  and  _50
REMARK   25  A    between atoms: _50  and  _51
REMARK   26  A    between atoms: _53  and  _55
REMARK   27  A    between atoms: _55  and  _56
REMARK   28  A    between atoms: _55  and  _58
REMARK   29  A    between atoms: _58  and  _59
REMARK   30  A    between atoms: _62  and  _64
REMARK   31  A    between atoms: _64  and  _65
REMARK   32  A    between atoms: _64  and  _67
REMARK   33  A    between atoms: _67  and  _68
REMARK   34  A    between atoms: _73  and  _74
REMARK   35  A    between atoms: _76  and  _78
REMARK   36  A    between atoms: _78  and  _79
REMARK   37  A    between atoms: _81  and  _83
REMARK   38  A    between atoms: _83  and  _84
REMARK   39  A    between atoms: _83  and  _86
REMARK   40  A    between atoms: _89  and  _91
REMARK   41  A    between atoms: _91  and  _92
REMARK   42  A    between atoms: _91  and  _94
REMARK   43  A    between atoms: _97  and  _99
REMARK   44  A    between atoms: _99  and  _100
REMARK   45  A    between atoms: _99  and  _102
REMARK   46  A    between atoms: _102  and  _103
REMARK   47  A    between atoms: _108  and  _109
REMARK   48  A    between atoms: _111  and  _113
REMARK   49  A    between atoms: _113  and  _114
REMARK   50  A    between atoms: _113  and  _116
REMARK   51  A    between atoms: _116  and  _117
REMARK   52  A    between atoms: _117  and  _118
REMARK   53  A    between atoms: _118  and  _119
REMARK   54  A    between atoms: _119  and  _120
REMARK   55  A    between atoms: _124  and  _126
REMARK   56  A    between atoms: _126  and  _127
REMARK   57  A    between atoms: _126  and  _129
REMARK   58  A    between atoms: _132  and  _134
REMARK   59  A    between atoms: _134  and  _135
REMARK   60  A    between atoms: _134  and  _137
REMARK   61  A    between atoms: _140  and  _142
REMARK   62  A    between atoms: _142  and  _143
REMARK   63  A    between atoms: _146  and  _148
REMARK   64  A    between atoms: _148  and  _149
REMARK   65  A    between atoms: _148  and  _151
REMARK   66  A    between atoms: _151  and  _152
REMARK   67  A    between atoms: _155  and  _157
REMARK   68  A    between atoms: _157  and  _158
REMARK   69  A    between atoms: _157  and  _160
REMARK   70  A    between atoms: _160  and  _161
REMARK   71  A    between atoms: _161  and  _162
REMARK   72  A    between atoms: _162  and  _163
REMARK   73  A    between atoms: _163  and  _164
REMARK   74  A    between atoms: _168  and  _170
REMARK   75  A    between atoms: _170  and  _171
REMARK   76  A    between atoms: _170  and  _173
REMARK   77  A    between atoms: _173  and  _174
REMARK   78  A    between atoms: _174  and  _175
REMARK   79  A    between atoms: _175  and  _176
REMARK   80  A    between atoms: _176  and  _177
REMARK   81  A    between atoms: _181  and  _183
REMARK   82  A    between atoms: _183  and  _184
REMARK   83  A    between atoms: _183  and  _186
REMARK   84  A    between atoms: _186  and  _187
REMARK   85  A    between atoms: _190  and  _192
REMARK   86  A    between atoms: _192  and  _193
REMARK   87  A    between atoms: _192  and  _195
REMARK   88  A    between atoms: _198  and  _200
REMARK   89  A    between atoms: _200  and  _201
REMARK   90  A    between atoms: _200  and  _203
REMARK   91  A    between atoms: _203  and  _204
REMARK   92  A    between atoms: _204  and  _205
REMARK   93  A    between atoms: _205  and  _206
REMARK   94  A    between atoms: _206  and  _207
REMARK   95  A    between atoms: _211  and  _213
REMARK   96  A    between atoms: _213  and  _214
REMARK   97  A    between atoms: _213  and  _216
REMARK   98  A    between atoms: _216  and  _217
REMARK   99  A    between atoms: _220  and  _222
REMARK  100  A    between atoms: _222  and  _223
REMARK  101  A    between atoms: _222  and  _225
REMARK  102  A    between atoms: _225  and  _226
REMARK  103  A    between atoms: _229  and  _231
REMARK  104  A    between atoms: _231  and  _232
REMARK  105  A    between atoms: _231  and  _234
REMARK  106  A    between atoms: _234  and  _235
REMARK  107  A    between atoms: _238  and  _240
REMARK  108  A    between atoms: _240  and  _241
REMARK  109  A    between atoms: _240  and  _243
REMARK  110  A    between atoms: _246  and  _248
REMARK  111  A    between atoms: _248  and  _249
REMARK  112  A    between atoms: _248  and  _251
REMARK  113  A    between atoms: _251  and  _252
REMARK  114  A    between atoms: _258  and  _260
REMARK  115  A    between atoms: _260  and  _261
REMARK  116  A    between atoms: _260  and  _263
REMARK  117  A    between atoms: _263  and  _264
REMARK  118  A    between atoms: _264  and  _265
REMARK  119  A    between atoms: _268  and  _270
REMARK  120  A    between atoms: _270  and  _271
REMARK  121  A    between atoms: _270  and  _273
REMARK  122  A    between atoms: _273  and  _274
REMARK  123  A    between atoms: _280  and  _282
REMARK  124  A    between atoms: _282  and  _283
REMARK  125  A    between atoms: _282  and  _285
REMARK  126  A    between atoms: _285  and  _286
REMARK  127  A    between atoms: _289  and  _291
REMARK  128  A    between atoms: _291  and  _292
REMARK  129  A    between atoms: _291  and  _294
REMARK  130  A    between atoms: _294  and  _295
REMARK  131  A    between atoms: _300  and  _302
REMARK  132  A    between atoms: _302  and  _303
REMARK  133  A    between atoms: _302  and  _305
REMARK  134  A    between atoms: _305  and  _306
REMARK  135  A    between atoms: _306  and  _307
REMARK  136  A    between atoms: _312  and  _314
REMARK  137  A    between atoms: _314  and  _315
REMARK  138  A    between atoms: _314  and  _317
REMARK  139  A    between atoms: _317  and  _318
REMARK  140  A    between atoms: _321  and  _323
REMARK  141  A    between atoms: _323  and  _324
REMARK  142  A    between atoms: _323  and  _326
REMARK  143  A    between atoms: _326  and  _327
REMARK  144  A    between atoms: _330  and  _332
REMARK  145  A    between atoms: _332  and  _333
REMARK  146  A    between atoms: _332  and  _335
REMARK  147  A    between atoms: _335  and  _336
REMARK  148  A    between atoms: _336  and  _337
REMARK  149  A    between atoms: _337  and  _338
REMARK  150  A    between atoms: _338  and  _339
REMARK  151  A    between atoms: _343  and  _345
REMARK  152  A    between atoms: _345  and  _346
REMARK  153  A    between atoms: _345  and  _348
REMARK  154  A    between atoms: _348  and  _349
REMARK  155  A    between atoms: _349  and  _350
REMARK  156  A    between atoms: _350  and  _351
REMARK  157  A    between atoms: _351  and  _352
REMARK  158  A    between atoms: _356  and  _358
REMARK  159  A    between atoms: _358  and  _359
REMARK  160  A    between atoms: _358  and  _361
REMARK  161  A    between atoms: _361  and  _362
REMARK  162  A    between atoms: _368  and  _370
REMARK  163  A    between atoms: _370  and  _371
REMARK  164  A    between atoms: _370  and  _373
REMARK  165  A    between atoms: _373  and  _374
REMARK  166  A    between atoms: _377  and  _379
REMARK  167  A    between atoms: _379  and  _380
REMARK  168  A    between atoms: _379  and  _382
REMARK  169  A    between atoms: _382  and  _383
REMARK  170  A    between atoms: _388  and  _390
REMARK  171  A    between atoms: _390  and  _391
REMARK  172  A    between atoms: _390  and  _393
REMARK  173  A    between atoms: _393  and  _394
REMARK  174  A    between atoms: _394  and  _395
REMARK  175  A    between atoms: _395  and  _396
REMARK  176  A    between atoms: _396  and  _397
REMARK  177  A    between atoms: _402  and  _403
REMARK  178  A    between atoms: _408  and  _410
REMARK  179  A    between atoms: _410  and  _411
REMARK  180  A    between atoms: _410  and  _413
REMARK  181  A    between atoms: _413  and  _414
REMARK  182  A    between atoms: _414  and  _415
REMARK  183  A    between atoms: _420  and  _422
REMARK  184  A    between atoms: _422  and  _423
REMARK  185  A    between atoms: _422  and  _425
REMARK  186  A    between atoms: _425  and  _426
REMARK  187  A    between atoms: _431  and  _433
REMARK  188  A    between atoms: _433  and  _434
REMARK  189  A    between atoms: _433  and  _436
REMARK  190  A    between atoms: _436  and  _437
REMARK  191  A    between atoms: _440  and  _442
REMARK  192  A    between atoms: _442  and  _443
REMARK  193  A    between atoms: _442  and  _445
REMARK  194  A    between atoms: _445  and  _446
REMARK  195  A    between atoms: _449  and  _451
REMARK  196  A    between atoms: _451  and  _452
REMARK  197  A    between atoms: _451  and  _454
REMARK  198  A    between atoms: _454  and  _455
REMARK  199  A    between atoms: _458  and  _460
REMARK  200  A    between atoms: _460  and  _461
REMARK  201  A    between atoms: _460  and  _463
REMARK  202  A    between atoms: _463  and  _464
REMARK  203  A    between atoms: _464  and  _465
REMARK  204  A    between atoms: _465  and  _466
REMARK  205  A    between atoms: _466  and  _467
REMARK  206  A    between atoms: _471  and  _473
REMARK  207  A    between atoms: _473  and  _474
REMARK  208  A    between atoms: _473  and  _476
REMARK  209  A    between atoms: _476  and  _477
REMARK  210  A    between atoms: _480  and  _482
REMARK  211  A    between atoms: _482  and  _483
REMARK  212  A    between atoms: _486  and  _488
REMARK  213  A    between atoms: _488  and  _489
REMARK  214  A    between atoms: _488  and  _491
REMARK  215  A    between atoms: _491  and  _492
REMARK  216  A    between atoms: _495  and  _497
REMARK  217  A    between atoms: _497  and  _498
REMARK  218  A    between atoms: _497  and  _500
REMARK  219  A    between atoms: _500  and  _501
REMARK  220  A    between atoms: _507  and  _509
REMARK  221  A    between atoms: _509  and  _510
REMARK  222  A    between atoms: _509  and  _512
REMARK  223  A    between atoms: _512  and  _513
REMARK  224  A    between atoms: _516  and  _518
REMARK  225  A    between atoms: _518  and  _519
REMARK  226  A    between atoms: _518  and  _521
REMARK  227  A    between atoms: _521  and  _522
REMARK                            x       y       z     vdW  Elec       q    Type
REMARK                         _______ _______ _______ _____ _____    ______ ____
ROOT
ATOM      1  O   HOH     1      21.990  25.895  33.537  0.00  0.00    +0.000 OA
ENDROOT
TORSDOF 0
REMARK  Name = ../refined-set-2016/2xnb/2xnb_pocket.pdb
REMARK  227 active torsions:
REMARK  status: ('A' for Active; 'I' for Inactive)
REMARK    1  A    between atoms: _1  and  _3
REMARK    2  A    between atoms: _3  and  _4
REMARK    3  A    between atoms: _3  and  _6
REMARK    4  A    between atoms: _6  and  _7
REMARK    5  A    between atoms: _7  and  _8
REMARK    6  A    between atoms: _11  and  _13
REMARK    7  A    between atoms: _13  and  _14
REMARK    8  A    between atoms: _13  and  _16
REMARK    9  A    between atoms: _16  and  _17
REMARK   10  A    between atoms: _17  and  _18
REMARK   11  A    between atoms: _18  and  _19
REMARK   12  A    between atoms: _19  and  _20
REMARK   13  A    between atoms: _24  and  _26
REMARK   14  A    between atoms: _26  and  _27
REMARK   15  A    between atoms: _26  and  _29
REMARK   16  A    between atoms: _29  and  _30
REMARK   17  A    between atoms: _33  and  _35
REMARK   18  A    between atoms: _35  and  _36
REMARK   19  A    between atoms: _38  and  _40
REMARK   20  A    between atoms: _40  and  _41
REMARK   21  A    between atoms: _40  and  _43
REMARK   22  A    between atoms: _43  and  _44
REMARK   23  A    between atoms: _44  and  _45
REMARK   24  A    between atoms: _48  and  _50
REMARK   25  A    between atoms: _50  and  _51
REMARK   26  A    between atoms: _53  and  _55
REMARK   27  A    between atoms: _55  and  _56
REMARK   28  A    between atoms: _55  and  _58
REMARK   29  A    between atoms: _58  and  _59
REMARK   30  A    between atoms: _62  and  _64
REMARK   31  A    between atoms: _64  and  _65
REMARK   32  A    between atoms: _64  and  _67
REMARK   33  A    between atoms: _67  and  _68
REMARK   34  A    between atoms: _73  and  _74
REMARK   35  A    between atoms: _76  and  _78
REMARK   36  A    between atoms: _78  and  _79
REMARK   37  A    between atoms: _81  and  _83
REMARK   38  A    between atoms: _83  and  _84
REMARK   39  A    between atoms: _83  and  _86
REMARK   40  A    between atoms: _89  and  _91
REMARK   41  A    between atoms: _91  and  _92
REMARK   42  A    between atoms: _91  and  _94
REMARK   43  A    between atoms: _97  and  _99
REMARK   44  A    between atoms: _99  and  _100
REMARK   45  A    between atoms: _99  and  _102
REMARK   46  A    between atoms: _102  and  _103
REMARK   47  A    between atoms: _108  and  _109
REMARK   48  A    between atoms: _111  and  _113
REMARK   49  A    between atoms: _113  and  _114
REMARK   50  A    between atoms: _113  and  _116
REMARK   51  A    between atoms: _116  and  _117
REMARK   52  A    between atoms: _117  and  _118
REMARK   53  A    between atoms: _118  and  _119
REMARK   54  A    between atoms: _119  and  _120
REMARK   55  A    between atoms: _124  and  _126
REMARK   56  A    between atoms: _126  and  _127
REMARK   57  A    between atoms: _126  and  _129
REMARK   58  A    between atoms: _132  and  _134
REMARK   59  A    between atoms: _134  and  _135
REMARK   60  A    between atoms: _134  and  _137
REMARK   61  A    between atoms: _140  and  _142
REMARK   62  A    between atoms: _142  and  _143
REMARK   63  A    between atoms: _146  and  _148
REMARK   64  A    between atoms: _148  and  _149
REMARK   65  A    between atoms: _148  and  _151
REMARK   66  A    between atoms: _151  and  _152
REMARK   67  A    between atoms: _155  and  _157
REMARK   68  A    between atoms: _157  and  _158
REMARK   69  A    between atoms: _157  and  _160
REMARK   70  A    between atoms: _160  and  _161
REMARK   71  A    between atoms: _161  and  _162
REMARK   72  A    between atoms: _162  and  _163
REMARK   73  A    between atoms: _163  and  _164
REMARK   74  A    between atoms: _168  and  _170
REMARK   75  A    between atoms: _170  and  _171
REMARK   76  A    between atoms: _170  and  _173
REMARK   77  A    between atoms: _173  and  _174
REMARK   78  A    between atoms: _174  and  _175
REMARK   79  A    between atoms: _175  and  _176
REMARK   80  A    between atoms: _176  and  _177
REMARK   81  A    between atoms: _181  and  _183
REMARK   82  A    between atoms: _183  and  _184
REMARK   83  A    between atoms: _183  and  _186
REMARK   84  A    between atoms: _186  and  _187
REMARK   85  A    between atoms: _190  and  _192
REMARK   86  A    between atoms: _192  and  _193
REMARK   87  A    between atoms: _192  and  _195
REMARK   88  A    between atoms: _198  and  _200
REMARK   89  A    between atoms: _200  and  _201
REMARK   90  A    between atoms: _200  and  _203
REMARK   91  A    between atoms: _203  and  _204
REMARK   92  A    between atoms: _204  and  _205
REMARK   93  A    between atoms: _205  and  _206
REMARK   94  A    between atoms: _206  and  _207
REMARK   95  A    between atoms: _211  and  _213
REMARK   96  A    between atoms: _213  and  _214
REMARK   97  A    between atoms: _213  and  _216
REMARK   98  A    between atoms: _216  and  _217
REMARK   99  A    between atoms: _220  and  _222
REMARK  100  A    between atoms: _222  and  _223
REMARK  101  A    between atoms: _222  and  _225
REMARK  102  A    between atoms: _225  and  _226
REMARK  103  A    between atoms: _229  and  _231
REMARK  104  A    between atoms: _231  and  _232
REMARK  105  A    between atoms: _231  and  _234
REMARK  106  A    between atoms: _234  and  _235
REMARK  107  A    between atoms: _238  and  _240
REMARK  108  A    between atoms: _240  and  _241
REMARK  109  A    between atoms: _240  and  _243
REMARK  110  A    between atoms: _246  and  _248
REMARK  111  A    between atoms: _248  and  _249
REMARK  112  A    between atoms: _248  and  _251
REMARK  113  A    between atoms: _251  and  _252
REMARK  114  A    between atoms: _258  and  _260
REMARK  115  A    between atoms: _260  and  _261
REMARK  116  A    between atoms: _260  and  _263
REMARK  117  A    between atoms: _263  and  _264
REMARK  118  A    between atoms: _264  and  _265
REMARK  119  A    between atoms: _268  and  _270
REMARK  120  A    between atoms: _270  and  _271
REMARK  121  A    between atoms: _270  and  _273
REMARK  122  A    between atoms: _273  and  _274
REMARK  123  A    between atoms: _280  and  _282
REMARK  124  A    between atoms: _282  and  _283
REMARK  125  A    between atoms: _282  and  _285
REMARK  126  A    between atoms: _285  and  _286
REMARK  127  A    between atoms: _289  and  _291
REMARK  128  A    between atoms: _291  and  _292
REMARK  129  A    between atoms: _291  and  _294
REMARK  130  A    between atoms: _294  and  _295
REMARK  131  A    between atoms: _300  and  _302
REMARK  132  A    between atoms: _302  and  _303
REMARK  133  A    between atoms: _302  and  _305
REMARK  134  A    between atoms: _305  and  _306
REMARK  135  A    between atoms: _306  and  _307
REMARK  136  A    between atoms: _312  and  _314
REMARK  137  A    between atoms: _314  and  _315
REMARK  138  A    between atoms: _314  and  _317
REMARK  139  A    between atoms: _317  and  _318
REMARK  140  A    between atoms: _321  and  _323
REMARK  141  A    between atoms: _323  and  _324
REMARK  142  A    between atoms: _323  and  _326
REMARK  143  A    between atoms: _326  and  _327
REMARK  144  A    between atoms: _330  and  _332
REMARK  145  A    between atoms: _332  and  _333
REMARK  146  A    between atoms: _332  and  _335
REMARK  147  A    between atoms: _335  and  _336
REMARK  148  A    between atoms: _336  and  _337
REMARK  149  A    between atoms: _337  and  _338
REMARK  150  A    between atoms: _338  and  _339
REMARK  151  A    between atoms: _343  and  _345
REMARK  152  A    between atoms: _345  and  _346
REMARK  153  A    between atoms: _345  and  _348
REMARK  154  A    between atoms: _348  and  _349
REMARK  155  A    between atoms: _349  and  _350
REMARK  156  A    between atoms: _350  and  _351
REMARK  157  A    between atoms: _351  and  _352
REMARK  158  A    between atoms: _356  and  _358
REMARK  159  A    between atoms: _358  and  _359
REMARK  160  A    between atoms: _358  and  _361
REMARK  161  A    between atoms: _361  and  _362
REMARK  162  A    between atoms: _368  and  _370
REMARK  163  A    between atoms: _370  and  _371
REMARK  164  A    between atoms: _370  and  _373
REMARK  165  A    between atoms: _373  and  _374
REMARK  166  A    between atoms: _377  and  _379
REMARK  167  A    between atoms: _379  and  _380
REMARK  168  A    between atoms: _379  and  _382
REMARK  169  A    between atoms: _382  and  _383
REMARK  170  A    between atoms: _388  and  _390
REMARK  171  A    between atoms: _390  and  _391
REMARK  172  A    between atoms: _390  and  _393
REMARK  173  A    between atoms: _393  and  _394
REMARK  174  A    between atoms: _394  and  _395
REMARK  175  A    between atoms: _395  and  _396
REMARK  176  A    between atoms: _396  and  _397
REMARK  177  A    between atoms: _402  and  _403
REMARK  178  A    between atoms: _408  and  _410
REMARK  179  A    between atoms: _410  and  _411
REMARK  180  A    between atoms: _410  and  _413
REMARK  181  A    between atoms: _413  and  _414
REMARK  182  A    between atoms: _414  and  _415
REMARK  183  A    between atoms: _420  and  _422
REMARK  184  A    between atoms: _422  and  _423
REMARK  185  A    between atoms: _422  and  _425
REMARK  186  A    between atoms: _425  and  _426
REMARK  187  A    between atoms: _431  and  _433
REMARK  188  A    between atoms: _433  and  _434
REMARK  189  A    between atoms: _433  and  _436
REMARK  190  A    between atoms: _436  and  _437
REMARK  191  A    between atoms: _440  and  _442
REMARK  192  A    between atoms: _442  and  _443
REMARK  193  A    between atoms: _442  and  _445
REMARK  194  A    between atoms: _445  and  _446
REMARK  195  A    between atoms: _449  and  _451
REMARK  196  A    between atoms: _451  and  _452
REMARK  197  A    between atoms: _451  and  _454
REMARK  198  A    between atoms: _454  and  _455
REMARK  199  A    between atoms: _458  and  _460
REMARK  200  A    between atoms: _460  and  _461
REMARK  201  A    between atoms: _460  and  _463
REMARK  202  A    between atoms: _463  and  _464
REMARK  203  A    between atoms: _464  and  _465
REMARK  204  A    between atoms: _465  and  _466
REMARK  205  A    between atoms: _466  and  _467
REMARK  206  A    between atoms: _471  and  _473
REMARK  207  A    between atoms: _473  and  _474
REMARK  208  A    between atoms: _473  and  _476
REMARK  209  A    between atoms: _476  and  _477
REMARK  210  A    between atoms: _480  and  _482
REMARK  211  A    between atoms: _482  and  _483
REMARK  212  A    between atoms: _486  and  _488
REMARK  213  A    between atoms: _488  and  _489
REMARK  214  A    between atoms: _488  and  _491
REMARK  215  A    between atoms: _491  and  _492
REMARK  216  A    between atoms: _495  and  _497
REMARK  217  A    between atoms: _497  and  _498
REMARK  218  A    between atoms: _497  and  _500
REMARK  219  A    between atoms: _500  and  _501
REMARK  220  A    between atoms: _507  and  _509
REMARK  221  A    between atoms: _509  and  _510
REMARK  222  A    between atoms: _509  and  _512
REMARK  223  A    between atoms: _512  and  _513
REMARK  224  A    between atoms: _516  and  _518
REMARK  225  A    between atoms: _518  and  _519
REMARK  226  A    between atoms: _518  and  _521
REMARK  227  A    between atoms: _521  and  _522
REMARK                            x       y       z     vdW  Elec       q    Type
REMARK                         _______ _______ _______ _____ _____    ______ ____
ROOT
ATOM      1  O   HOH     1      23.283  21.464  31.871  0.00  0.00    +0.000 OA
ENDROOT
TORSDOF 0
REMARK  Name = ../refined-set-2016/2xnb/2xnb_pocket.pdb
REMARK  227 active torsions:
REMARK  status: ('A' for Active; 'I' for Inactive)
REMARK    1  A    between atoms: _1  and  _3
REMARK    2  A    between atoms: _3  and  _4
REMARK    3  A    between atoms: _3  and  _6
REMARK    4  A    between atoms: _6  and  _7
REMARK    5  A    between atoms: _7  and  _8
REMARK    6  A    between atoms: _11  and  _13
REMARK    7  A    between atoms: _13  and  _14
REMARK    8  A    between atoms: _13  and  _16
REMARK    9  A    between atoms: _16  and  _17
REMARK   10  A    between atoms: _17  and  _18
REMARK   11  A    between atoms: _18  and  _19
REMARK   12  A    between atoms: _19  and  _20
REMARK   13  A    between atoms: _24  and  _26
REMARK   14  A    between atoms: _26  and  _27
REMARK   15  A    between atoms: _26  and  _29
REMARK   16  A    between atoms: _29  and  _30
REMARK   17  A    between atoms: _33  and  _35
REMARK   18  A    between atoms: _35  and  _36
REMARK   19  A    between atoms: _38  and  _40
REMARK   20  A    between atoms: _40  and  _41
REMARK   21  A    between atoms: _40  and  _43
REMARK   22  A    between atoms: _43  and  _44
REMARK   23  A    between atoms: _44  and  _45
REMARK   24  A    between atoms: _48  and  _50
REMARK   25  A    between atoms: _50  and  _51
REMARK   26  A    between atoms: _53  and  _55
REMARK   27  A    between atoms: _55  and  _56
REMARK   28  A    between atoms: _55  and  _58
REMARK   29  A    between atoms: _58  and  _59
REMARK   30  A    between atoms: _62  and  _64
REMARK   31  A    between atoms: _64  and  _65
REMARK   32  A    between atoms: _64  and  _67
REMARK   33  A    between atoms: _67  and  _68
REMARK   34  A    between atoms: _73  and  _74
REMARK   35  A    between atoms: _76  and  _78
REMARK   36  A    between atoms: _78  and  _79
REMARK   37  A    between atoms: _81  and  _83
REMARK   38  A    between atoms: _83  and  _84
REMARK   39  A    between atoms: _83  and  _86
REMARK   40  A    between atoms: _89  and  _91
REMARK   41  A    between atoms: _91  and  _92
REMARK   42  A    between atoms: _91  and  _94
REMARK   43  A    between atoms: _97  and  _99
REMARK   44  A    between atoms: _99  and  _100
REMARK   45  A    between atoms: _99  and  _102
REMARK   46  A    between atoms: _102  and  _103
REMARK   47  A    between atoms: _108  and  _109
REMARK   48  A    between atoms: _111  and  _113
REMARK   49  A    between atoms: _113  and  _114
REMARK   50  A    between atoms: _113  and  _116
REMARK   51  A    between atoms: _116  and  _117
REMARK   52  A    between atoms: _117  and  _118
REMARK   53  A    between atoms: _118  and  _119
REMARK   54  A    between atoms: _119  and  _120
REMARK   55  A    between atoms: _124  and  _126
REMARK   56  A    between atoms: _126  and  _127
REMARK   57  A    between atoms: _126  and  _129
REMARK   58  A    between atoms: _132  and  _134
REMARK   59  A    between atoms: _134  and  _135
REMARK   60  A    between atoms: _134  and  _137
REMARK   61  A    between atoms: _140  and  _142
REMARK   62  A    between atoms: _142  and  _143
REMARK   63  A    between atoms: _146  and  _148
REMARK   64  A    between atoms: _148  and  _149
REMARK   65  A    between atoms: _148  and  _151
REMARK   66  A    between atoms: _151  and  _152
REMARK   67  A    between atoms: _155  and  _157
REMARK   68  A    between atoms: _157  and  _158
REMARK   69  A    between atoms: _157  and  _160
REMARK   70  A    between atoms: _160  and  _161
REMARK   71  A    between atoms: _161  and  _162
REMARK   72  A    between atoms: _162  and  _163
REMARK   73  A    between atoms: _163  and  _164
REMARK   74  A    between atoms: _168  and  _170
REMARK   75  A    between atoms: _170  and  _171
REMARK   76  A    between atoms: _170  and  _173
REMARK   77  A    between atoms: _173  and  _174
REMARK   78  A    between atoms: _174  and  _175
REMARK   79  A    between atoms: _175  and  _176
REMARK   80  A    between atoms: _176  and  _177
REMARK   81  A    between atoms: _181  and  _183
REMARK   82  A    between atoms: _183  and  _184
REMARK   83  A    between atoms: _183  and  _186
REMARK   84  A    between atoms: _186  and  _187
REMARK   85  A    between atoms: _190  and  _192
REMARK   86  A    between atoms: _192  and  _193
REMARK   87  A    between atoms: _192  and  _195
REMARK   88  A    between atoms: _198  and  _200
REMARK   89  A    between atoms: _200  and  _201
REMARK   90  A    between atoms: _200  and  _203
REMARK   91  A    between atoms: _203  and  _204
REMARK   92  A    between atoms: _204  and  _205
REMARK   93  A    between atoms: _205  and  _206
REMARK   94  A    between atoms: _206  and  _207
REMARK   95  A    between atoms: _211  and  _213
REMARK   96  A    between atoms: _213  and  _214
REMARK   97  A    between atoms: _213  and  _216
REMARK   98  A    between atoms: _216  and  _217
REMARK   99  A    between atoms: _220  and  _222
REMARK  100  A    between atoms: _222  and  _223
REMARK  101  A    between atoms: _222  and  _225
REMARK  102  A    between atoms: _225  and  _226
REMARK  103  A    between atoms: _229  and  _231
REMARK  104  A    between atoms: _231  and  _232
REMARK  105  A    between atoms: _231  and  _234
REMARK  106  A    between atoms: _234  and  _235
REMARK  107  A    between atoms: _238  and  _240
REMARK  108  A    between atoms: _240  and  _241
REMARK  109  A    between atoms: _240  and  _243
REMARK  110  A    between atoms: _246  and  _248
REMARK  111  A    between atoms: _248  and  _249
REMARK  112  A    between atoms: _248  and  _251
REMARK  113  A    between atoms: _251  and  _252
REMARK  114  A    between atoms: _258  and  _260
REMARK  115  A    between atoms: _260  and  _261
REMARK  116  A    between atoms: _260  and  _263
REMARK  117  A    between atoms: _263  and  _264
REMARK  118  A    between atoms: _264  and  _265
REMARK  119  A    between atoms: _268  and  _270
REMARK  120  A    between atoms: _270  and  _271
REMARK  121  A    between atoms: _270  and  _273
REMARK  122  A    between atoms: _273  and  _274
REMARK  123  A    between atoms: _280  and  _282
REMARK  124  A    between atoms: _282  and  _283
REMARK  125  A    between atoms: _282  and  _285
REMARK  126  A    between atoms: _285  and  _286
REMARK  127  A    between atoms: _289  and  _291
REMARK  128  A    between atoms: _291  and  _292
REMARK  129  A    between atoms: _291  and  _294
REMARK  130  A    between atoms: _294  and  _295
REMARK  131  A    between atoms: _300  and  _302
REMARK  132  A    between atoms: _302  and  _303
REMARK  133  A    between atoms: _302  and  _305
REMARK  134  A    between atoms: _305  and  _306
REMARK  135  A    between atoms: _306  and  _307
REMARK  136  A    between atoms: _312  and  _314
REMARK  137  A    between atoms: _314  and  _315
REMARK  138  A    between atoms: _314  and  _317
REMARK  139  A    between atoms: _317  and  _318
REMARK  140  A    between atoms: _321  and  _323
REMARK  141  A    between atoms: _323  and  _324
REMARK  142  A    between atoms: _323  and  _326
REMARK  143  A    between atoms: _326  and  _327
REMARK  144  A    between atoms: _330  and  _332
REMARK  145  A    between atoms: _332  and  _333
REMARK  146  A    between atoms: _332  and  _335
REMARK  147  A    between atoms: _335  and  _336
REMARK  148  A    between atoms: _336  and  _337
REMARK  149  A    between atoms: _337  and  _338
REMARK  150  A    between atoms: _338  and  _339
REMARK  151  A    between atoms: _343  and  _345
REMARK  152  A    between atoms: _345  and  _346
REMARK  153  A    between atoms: _345  and  _348
REMARK  154  A    between atoms: _348  and  _349
REMARK  155  A    between atoms: _349  and  _350
REMARK  156  A    between atoms: _350  and  _351
REMARK  157  A    between atoms: _351  and  _352
REMARK  158  A    between atoms: _356  and  _358
REMARK  159  A    between atoms: _358  and  _359
REMARK  160  A    between atoms: _358  and  _361
REMARK  161  A    between atoms: _361  and  _362
REMARK  162  A    between atoms: _368  and  _370
REMARK  163  A    between atoms: _370  and  _371
REMARK  164  A    between atoms: _370  and  _373
REMARK  165  A    between atoms: _373  and  _374
REMARK  166  A    between atoms: _377  and  _379
REMARK  167  A    between atoms: _379  and  _380
REMARK  168  A    between atoms: _379  and  _382
REMARK  169  A    between atoms: _382  and  _383
REMARK  170  A    between atoms: _388  and  _390
REMARK  171  A    between atoms: _390  and  _391
REMARK  172  A    between atoms: _390  and  _393
REMARK  173  A    between atoms: _393  and  _394
REMARK  174  A    between atoms: _394  and  _395
REMARK  175  A    between atoms: _395  and  _396
REMARK  176  A    between atoms: _396  and  _397
REMARK  177  A    between atoms: _402  and  _403
REMARK  178  A    between atoms: _408  and  _410
REMARK  179  A    between atoms: _410  and  _411
REMARK  180  A    between atoms: _410  and  _413
REMARK  181  A    between atoms: _413  and  _414
REMARK  182  A    between atoms: _414  and  _415
REMARK  183  A    between atoms: _420  and  _422
REMARK  184  A    between atoms: _422  and  _423
REMARK  185  A    between atoms: _422  and  _425
REMARK  186  A    between atoms: _425  and  _426
REMARK  187  A    between atoms: _431  and  _433
REMARK  188  A    between atoms: _433  and  _434
REMARK  189  A    between atoms: _433  and  _436
REMARK  190  A    between atoms: _436  and  _437
REMARK  191  A    between atoms: _440  and  _442
REMARK  192  A    between atoms: _442  and  _443
REMARK  193  A    between atoms: _442  and  _445
REMARK  194  A    between atoms: _445  and  _446
REMARK  195  A    between atoms: _449  and  _451
REMARK  196  A    between atoms: _451  and  _452
REMARK  197  A    between atoms: _451  and  _454
REMARK  198  A    between atoms: _454  and  _455
REMARK  199  A    between atoms: _458  and  _460
REMARK  200  A    between atoms: _460  and  _461
REMARK  201  A    between atoms: _460  and  _463
REMARK  202  A    between atoms: _463  and  _464
REMARK  203  A    between atoms: _464  and  _465
REMARK  204  A    between atoms: _465  and  _466
REMARK  205  A    between atoms: _466  and  _467
REMARK  206  A    between atoms: _471  and  _473
REMARK  207  A    between atoms: _473  and  _474
REMARK  208  A    between atoms: _473  and  _476
REMARK  209  A    between atoms: _476  and  _477
REMARK  210  A    between atoms: _480  and  _482
REMARK  211  A    between atoms: _482  and  _483
REMARK  212  A    between atoms: _486  and  _488
REMARK  213  A    between atoms: _488  and  _489
REMARK  214  A    between atoms: _488  and  _491
REMARK  215  A    between atoms: _491  and  _492
REMARK  216  A    between atoms: _495  and  _497
REMARK  217  A    between atoms: _497  and  _498
REMARK  218  A    between atoms: _497  and  _500
REMARK  219  A    between atoms: _500  and  _501
REMARK  220  A    between atoms: _507  and  _509
REMARK  221  A    between atoms: _509  and  _510
REMARK  222  A    between atoms: _509  and  _512
REMARK  223  A    between atoms: _512  and  _513
REMARK  224  A    between atoms: _516  and  _518
REMARK  225  A    between atoms: _518  and  _519
REMARK  226  A    between atoms: _518  and  _521
REMARK  227  A    between atoms: _521  and  _522
REMARK                            x       y       z     vdW  Elec       q    Type
REMARK                         _______ _______ _______ _____ _____    ______ ____
ROOT
ATOM      1  O   HOH     1      27.513  22.523  23.813  0.00  0.00    +0.000 OA
ENDROOT
TORSDOF 0
REMARK  Name = ../refined-set-2016/2xnb/2xnb_pocket.pdb
REMARK  227 active torsions:
REMARK  status: ('A' for Active; 'I' for Inactive)
REMARK    1  A    between atoms: _1  and  _3
REMARK    2  A    between atoms: _3  and  _4
REMARK    3  A    between atoms: _3  and  _6
REMARK    4  A    between atoms: _6  and  _7
REMARK    5  A    between atoms: _7  and  _8
REMARK    6  A    between atoms: _11  and  _13
REMARK    7  A    between atoms: _13  and  _14
REMARK    8  A    between atoms: _13  and  _16
REMARK    9  A    between atoms: _16  and  _17
REMARK   10  A    between atoms: _17  and  _18
REMARK   11  A    between atoms: _18  and  _19
REMARK   12  A    between atoms: _19  and  _20
REMARK   13  A    between atoms: _24  and  _26
REMARK   14  A    between atoms: _26  and  _27
REMARK   15  A    between atoms: _26  and  _29
REMARK   16  A    between atoms: _29  and  _30
REMARK   17  A    between atoms: _33  and  _35
REMARK   18  A    between atoms: _35  and  _36
REMARK   19  A    between atoms: _38  and  _40
REMARK   20  A    between atoms: _40  and  _41
REMARK   21  A    between atoms: _40  and  _43
REMARK   22  A    between atoms: _43  and  _44
REMARK   23  A    between atoms: _44  and  _45
REMARK   24  A    between atoms: _48  and  _50
REMARK   25  A    between atoms: _50  and  _51
REMARK   26  A    between atoms: _53  and  _55
REMARK   27  A    between atoms: _55  and  _56
REMARK   28  A    between atoms: _55  and  _58
REMARK   29  A    between atoms: _58  and  _59
REMARK   30  A    between atoms: _62  and  _64
REMARK   31  A    between atoms: _64  and  _65
REMARK   32  A    between atoms: _64  and  _67
REMARK   33  A    between atoms: _67  and  _68
REMARK   34  A    between atoms: _73  and  _74
REMARK   35  A    between atoms: _76  and  _78
REMARK   36  A    between atoms: _78  and  _79
REMARK   37  A    between atoms: _81  and  _83
REMARK   38  A    between atoms: _83  and  _84
REMARK   39  A    between atoms: _83  and  _86
REMARK   40  A    between atoms: _89  and  _91
REMARK   41  A    between atoms: _91  and  _92
REMARK   42  A    between atoms: _91  and  _94
REMARK   43  A    between atoms: _97  and  _99
REMARK   44  A    between atoms: _99  and  _100
REMARK   45  A    between atoms: _99  and  _102
REMARK   46  A    between atoms: _102  and  _103
REMARK   47  A    between atoms: _108  and  _109
REMARK   48  A    between atoms: _111  and  _113
REMARK   49  A    between atoms: _113  and  _114
REMARK   50  A    between atoms: _113  and  _116
REMARK   51  A    between atoms: _116  and  _117
REMARK   52  A    between atoms: _117  and  _118
REMARK   53  A    between atoms: _118  and  _119
REMARK   54  A    between atoms: _119  and  _120
REMARK   55  A    between atoms: _124  and  _126
REMARK   56  A    between atoms: _126  and  _127
REMARK   57  A    between atoms: _126  and  _129
REMARK   58  A    between atoms: _132  and  _134
REMARK   59  A    between atoms: _134  and  _135
REMARK   60  A    between atoms: _134  and  _137
REMARK   61  A    between atoms: _140  and  _142
REMARK   62  A    between atoms: _142  and  _143
REMARK   63  A    between atoms: _146  and  _148
REMARK   64  A    between atoms: _148  and  _149
REMARK   65  A    between atoms: _148  and  _151
REMARK   66  A    between atoms: _151  and  _152
REMARK   67  A    between atoms: _155  and  _157
REMARK   68  A    between atoms: _157  and  _158
REMARK   69  A    between atoms: _157  and  _160
REMARK   70  A    between atoms: _160  and  _161
REMARK   71  A    between atoms: _161  and  _162
REMARK   72  A    between atoms: _162  and  _163
REMARK   73  A    between atoms: _163  and  _164
REMARK   74  A    between atoms: _168  and  _170
REMARK   75  A    between atoms: _170  and  _171
REMARK   76  A    between atoms: _170  and  _173
REMARK   77  A    between atoms: _173  and  _174
REMARK   78  A    between atoms: _174  and  _175
REMARK   79  A    between atoms: _175  and  _176
REMARK   80  A    between atoms: _176  and  _177
REMARK   81  A    between atoms: _181  and  _183
REMARK   82  A    between atoms: _183  and  _184
REMARK   83  A    between atoms: _183  and  _186
REMARK   84  A    between atoms: _186  and  _187
REMARK   85  A    between atoms: _190  and  _192
REMARK   86  A    between atoms: _192  and  _193
REMARK   87  A    between atoms: _192  and  _195
REMARK   88  A    between atoms: _198  and  _200
REMARK   89  A    between atoms: _200  and  _201
REMARK   90  A    between atoms: _200  and  _203
REMARK   91  A    between atoms: _203  and  _204
REMARK   92  A    between atoms: _204  and  _205
REMARK   93  A    between atoms: _205  and  _206
REMARK   94  A    between atoms: _206  and  _207
REMARK   95  A    between atoms: _211  and  _213
REMARK   96  A    between atoms: _213  and  _214
REMARK   97  A    between atoms: _213  and  _216
REMARK   98  A    between atoms: _216  and  _217
REMARK   99  A    between atoms: _220  and  _222
REMARK  100  A    between atoms: _222  and  _223
REMARK  101  A    between atoms: _222  and  _225
REMARK  102  A    between atoms: _225  and  _226
REMARK  103  A    between atoms: _229  and  _231
REMARK  104  A    between atoms: _231  and  _232
REMARK  105  A    between atoms: _231  and  _234
REMARK  106  A    between atoms: _234  and  _235
REMARK  107  A    between atoms: _238  and  _240
REMARK  108  A    between atoms: _240  and  _241
REMARK  109  A    between atoms: _240  and  _243
REMARK  110  A    between atoms: _246  and  _248
REMARK  111  A    between atoms: _248  and  _249
REMARK  112  A    between atoms: _248  and  _251
REMARK  113  A    between atoms: _251  and  _252
REMARK  114  A    between atoms: _258  and  _260
REMARK  115  A    between atoms: _260  and  _261
REMARK  116  A    between atoms: _260  and  _263
REMARK  117  A    between atoms: _263  and  _264
REMARK  118  A    between atoms: _264  and  _265
REMARK  119  A    between atoms: _268  and  _270
REMARK  120  A    between atoms: _270  and  _271
REMARK  121  A    between atoms: _270  and  _273
REMARK  122  A    between atoms: _273  and  _274
REMARK  123  A    between atoms: _280  and  _282
REMARK  124  A    between atoms: _282  and  _283
REMARK  125  A    between atoms: _282  and  _285
REMARK  126  A    between atoms: _285  and  _286
REMARK  127  A    between atoms: _289  and  _291
REMARK  128  A    between atoms: _291  and  _292
REMARK  129  A    between atoms: _291  and  _294
REMARK  130  A    between atoms: _294  and  _295
REMARK  131  A    between atoms: _300  and  _302
REMARK  132  A    between atoms: _302  and  _303
REMARK  133  A    between atoms: _302  and  _305
REMARK  134  A    between atoms: _305  and  _306
REMARK  135  A    between atoms: _306  and  _307
REMARK  136  A    between atoms: _312  and  _314
REMARK  137  A    between atoms: _314  and  _315
REMARK  138  A    between atoms: _314  and  _317
REMARK  139  A    between atoms: _317  and  _318
REMARK  140  A    between atoms: _321  and  _323
REMARK  141  A    between atoms: _323  and  _324
REMARK  142  A    between atoms: _323  and  _326
REMARK  143  A    between atoms: _326  and  _327
REMARK  144  A    between atoms: _330  and  _332
REMARK  145  A    between atoms: _332  and  _333
REMARK  146  A    between atoms: _332  and  _335
REMARK  147  A    between atoms: _335  and  _336
REMARK  148  A    between atoms: _336  and  _337
REMARK  149  A    between atoms: _337  and  _338
REMARK  150  A    between atoms: _338  and  _339
REMARK  151  A    between atoms: _343  and  _345
REMARK  152  A    between atoms: _345  and  _346
REMARK  153  A    between atoms: _345  and  _348
REMARK  154  A    between atoms: _348  and  _349
REMARK  155  A    between atoms: _349  and  _350
REMARK  156  A    between atoms: _350  and  _351
REMARK  157  A    between atoms: _351  and  _352
REMARK  158  A    between atoms: _356  and  _358
REMARK  159  A    between atoms: _358  and  _359
REMARK  160  A    between atoms: _358  and  _361
REMARK  161  A    between atoms: _361  and  _362
REMARK  162  A    between atoms: _368  and  _370
REMARK  163  A    between atoms: _370  and  _371
REMARK  164  A    between atoms: _370  and  _373
REMARK  165  A    between atoms: _373  and  _374
REMARK  166  A    between atoms: _377  and  _379
REMARK  167  A    between atoms: _379  and  _380
REMARK  168  A    between atoms: _379  and  _382
REMARK  169  A    between atoms: _382  and  _383
REMARK  170  A    between atoms: _388  and  _390
REMARK  171  A    between atoms: _390  and  _391
REMARK  172  A    between atoms: _390  and  _393
REMARK  173  A    between atoms: _393  and  _394
REMARK  174  A    between atoms: _394  and  _395
REMARK  175  A    between atoms: _395  and  _396
REMARK  176  A    between atoms: _396  and  _397
REMARK  177  A    between atoms: _402  and  _403
REMARK  178  A    between atoms: _408  and  _410
REMARK  179  A    between atoms: _410  and  _411
REMARK  180  A    between atoms: _410  and  _413
REMARK  181  A    between atoms: _413  and  _414
REMARK  182  A    between atoms: _414  and  _415
REMARK  183  A    between atoms: _420  and  _422
REMARK  184  A    between atoms: _422  and  _423
REMARK  185  A    between atoms: _422  and  _425
REMARK  186  A    between atoms: _425  and  _426
REMARK  187  A    between atoms: _431  and  _433
REMARK  188  A    between atoms: _433  and  _434
REMARK  189  A    between atoms: _433  and  _436
REMARK  190  A    between atoms: _436  and  _437
REMARK  191  A    between atoms: _440  and  _442
REMARK  192  A    between atoms: _442  and  _443
REMARK  193  A    between atoms: _442  and  _445
REMARK  194  A    between atoms: _445  and  _446
REMARK  195  A    between atoms: _449  and  _451
REMARK  196  A    between atoms: _451  and  _452
REMARK  197  A    between atoms: _451  and  _454
REMARK  198  A    between atoms: _454  and  _455
REMARK  199  A    between atoms: _458  and  _460
REMARK  200  A    between atoms: _460  and  _461
REMARK  201  A    between atoms: _460  and  _463
REMARK  202  A    between atoms: _463  and  _464
REMARK  203  A    between atoms: _464  and  _465
REMARK  204  A    between atoms: _465  and  _466
REMARK  205  A    between atoms: _466  and  _467
REMARK  206  A    between atoms: _471  and  _473
REMARK  207  A    between atoms: _473  and  _474
REMARK  208  A    between atoms: _473  and  _476
REMARK  209  A    between atoms: _476  and  _477
REMARK  210  A    between atoms: _480  and  _482
REMARK  211  A    between atoms: _482  and  _483
REMARK  212  A    between atoms: _486  and  _488
REMARK  213  A    between atoms: _488  and  _489
REMARK  214  A    between atoms: _488  and  _491
REMARK  215  A    between atoms: _491  and  _492
REMARK  216  A    between atoms: _495  and  _497
REMARK  217  A    between atoms: _497  and  _498
REMARK  218  A    between atoms: _497  and  _500
REMARK  219  A    between atoms: _500  and  _501
REMARK  220  A    between atoms: _507  and  _509
REMARK  221  A    between atoms: _509  and  _510
REMARK  222  A    between atoms: _509  and  _512
REMARK  223  A    between atoms: _512  and  _513
REMARK  224  A    between atoms: _516  and  _518
REMARK  225  A    between atoms: _518  and  _519
REMARK  226  A    between atoms: _518  and  _521
REMARK  227  A    between atoms: _521  and  _522
REMARK                            x       y       z     vdW  Elec       q    Type
REMARK                         _______ _______ _______ _____ _____    ______ ____
ROOT
ATOM      1  O   HOH     1      20.292  27.507  35.324  0.00  0.00    +0.000 OA
ENDROOT
TORSDOF 0
REMARK  Name = ../refined-set-2016/2xnb/2xnb_pocket.pdb
REMARK  227 active torsions:
REMARK  status: ('A' for Active; 'I' for Inactive)
REMARK    1  A    between atoms: _1  and  _3
REMARK    2  A    between atoms: _3  and  _4
REMARK    3  A    between atoms: _3  and  _6
REMARK    4  A    between atoms: _6  and  _7
REMARK    5  A    between atoms: _7  and  _8
REMARK    6  A    between atoms: _11  and  _13
REMARK    7  A    between atoms: _13  and  _14
REMARK    8  A    between atoms: _13  and  _16
REMARK    9  A    between atoms: _16  and  _17
REMARK   10  A    between atoms: _17  and  _18
REMARK   11  A    between atoms: _18  and  _19
REMARK   12  A    between atoms: _19  and  _20
REMARK   13  A    between atoms: _24  and  _26
REMARK   14  A    between atoms: _26  and  _27
REMARK   15  A    between atoms: _26  and  _29
REMARK   16  A    between atoms: _29  and  _30
REMARK   17  A    between atoms: _33  and  _35
REMARK   18  A    between atoms: _35  and  _36
REMARK   19  A    between atoms: _38  and  _40
REMARK   20  A    between atoms: _40  and  _41
REMARK   21  A    between atoms: _40  and  _43
REMARK   22  A    between atoms: _43  and  _44
REMARK   23  A    between atoms: _44  and  _45
REMARK   24  A    between atoms: _48  and  _50
REMARK   25  A    between atoms: _50  and  _51
REMARK   26  A    between atoms: _53  and  _55
REMARK   27  A    between atoms: _55  and  _56
REMARK   28  A    between atoms: _55  and  _58
REMARK   29  A    between atoms: _58  and  _59
REMARK   30  A    between atoms: _62  and  _64
REMARK   31  A    between atoms: _64  and  _65
REMARK   32  A    between atoms: _64  and  _67
REMARK   33  A    between atoms: _67  and  _68
REMARK   34  A    between atoms: _73  and  _74
REMARK   35  A    between atoms: _76  and  _78
REMARK   36  A    between atoms: _78  and  _79
REMARK   37  A    between atoms: _81  and  _83
REMARK   38  A    between atoms: _83  and  _84
REMARK   39  A    between atoms: _83  and  _86
REMARK   40  A    between atoms: _89  and  _91
REMARK   41  A    between atoms: _91  and  _92
REMARK   42  A    between atoms: _91  and  _94
REMARK   43  A    between atoms: _97  and  _99
REMARK   44  A    between atoms: _99  and  _100
REMARK   45  A    between atoms: _99  and  _102
REMARK   46  A    between atoms: _102  and  _103
REMARK   47  A    between atoms: _108  and  _109
REMARK   48  A    between atoms: _111  and  _113
REMARK   49  A    between atoms: _113  and  _114
REMARK   50  A    between atoms: _113  and  _116
REMARK   51  A    between atoms: _116  and  _117
REMARK   52  A    between atoms: _117  and  _118
REMARK   53  A    between atoms: _118  and  _119
REMARK   54  A    between atoms: _119  and  _120
REMARK   55  A    between atoms: _124  and  _126
REMARK   56  A    between atoms: _126  and  _127
REMARK   57  A    between atoms: _126  and  _129
REMARK   58  A    between atoms: _132  and  _134
REMARK   59  A    between atoms: _134  and  _135
REMARK   60  A    between atoms: _134  and  _137
REMARK   61  A    between atoms: _140  and  _142
REMARK   62  A    between atoms: _142  and  _143
REMARK   63  A    between atoms: _146  and  _148
REMARK   64  A    between atoms: _148  and  _149
REMARK   65  A    between atoms: _148  and  _151
REMARK   66  A    between atoms: _151  and  _152
REMARK   67  A    between atoms: _155  and  _157
REMARK   68  A    between atoms: _157  and  _158
REMARK   69  A    between atoms: _157  and  _160
REMARK   70  A    between atoms: _160  and  _161
REMARK   71  A    between atoms: _161  and  _162
REMARK   72  A    between atoms: _162  and  _163
REMARK   73  A    between atoms: _163  and  _164
REMARK   74  A    between atoms: _168  and  _170
REMARK   75  A    between atoms: _170  and  _171
REMARK   76  A    between atoms: _170  and  _173
REMARK   77  A    between atoms: _173  and  _174
REMARK   78  A    between atoms: _174  and  _175
REMARK   79  A    between atoms: _175  and  _176
REMARK   80  A    between atoms: _176  and  _177
REMARK   81  A    between atoms: _181  and  _183
REMARK   82  A    between atoms: _183  and  _184
REMARK   83  A    between atoms: _183  and  _186
REMARK   84  A    between atoms: _186  and  _187
REMARK   85  A    between atoms: _190  and  _192
REMARK   86  A    between atoms: _192  and  _193
REMARK   87  A    between atoms: _192  and  _195
REMARK   88  A    between atoms: _198  and  _200
REMARK   89  A    between atoms: _200  and  _201
REMARK   90  A    between atoms: _200  and  _203
REMARK   91  A    between atoms: _203  and  _204
REMARK   92  A    between atoms: _204  and  _205
REMARK   93  A    between atoms: _205  and  _206
REMARK   94  A    between atoms: _206  and  _207
REMARK   95  A    between atoms: _211  and  _213
REMARK   96  A    between atoms: _213  and  _214
REMARK   97  A    between atoms: _213  and  _216
REMARK   98  A    between atoms: _216  and  _217
REMARK   99  A    between atoms: _220  and  _222
REMARK  100  A    between atoms: _222  and  _223
REMARK  101  A    between atoms: _222  and  _225
REMARK  102  A    between atoms: _225  and  _226
REMARK  103  A    between atoms: _229  and  _231
REMARK  104  A    between atoms: _231  and  _232
REMARK  105  A    between atoms: _231  and  _234
REMARK  106  A    between atoms: _234  and  _235
REMARK  107  A    between atoms: _238  and  _240
REMARK  108  A    between atoms: _240  and  _241
REMARK  109  A    between atoms: _240  and  _243
REMARK  110  A    between atoms: _246  and  _248
REMARK  111  A    between atoms: _248  and  _249
REMARK  112  A    between atoms: _248  and  _251
REMARK  113  A    between atoms: _251  and  _252
REMARK  114  A    between atoms: _258  and  _260
REMARK  115  A    between atoms: _260  and  _261
REMARK  116  A    between atoms: _260  and  _263
REMARK  117  A    between atoms: _263  and  _264
REMARK  118  A    between atoms: _264  and  _265
REMARK  119  A    between atoms: _268  and  _270
REMARK  120  A    between atoms: _270  and  _271
REMARK  121  A    between atoms: _270  and  _273
REMARK  122  A    between atoms: _273  and  _274
REMARK  123  A    between atoms: _280  and  _282
REMARK  124  A    between atoms: _282  and  _283
REMARK  125  A    between atoms: _282  and  _285
REMARK  126  A    between atoms: _285  and  _286
REMARK  127  A    between atoms: _289  and  _291
REMARK  128  A    between atoms: _291  and  _292
REMARK  129  A    between atoms: _291  and  _294
REMARK  130  A    between atoms: _294  and  _295
REMARK  131  A    between atoms: _300  and  _302
REMARK  132  A    between atoms: _302  and  _303
REMARK  133  A    between atoms: _302  and  _305
REMARK  134  A    between atoms: _305  and  _306
REMARK  135  A    between atoms: _306  and  _307
REMARK  136  A    between atoms: _312  and  _314
REMARK  137  A    between atoms: _314  and  _315
REMARK  138  A    between atoms: _314  and  _317
REMARK  139  A    between atoms: _317  and  _318
REMARK  140  A    between atoms: _321  and  _323
REMARK  141  A    between atoms: _323  and  _324
REMARK  142  A    between atoms: _323  and  _326
REMARK  143  A    between atoms: _326  and  _327
REMARK  144  A    between atoms: _330  and  _332
REMARK  145  A    between atoms: _332  and  _333
REMARK  146  A    between atoms: _332  and  _335
REMARK  147  A    between atoms: _335  and  _336
REMARK  148  A    between atoms: _336  and  _337
REMARK  149  A    between atoms: _337  and  _338
REMARK  150  A    between atoms: _338  and  _339
REMARK  151  A    between atoms: _343  and  _345
REMARK  152  A    between atoms: _345  and  _346
REMARK  153  A    between atoms: _345  and  _348
REMARK  154  A    between atoms: _348  and  _349
REMARK  155  A    between atoms: _349  and  _350
REMARK  156  A    between atoms: _350  and  _351
REMARK  157  A    between atoms: _351  and  _352
REMARK  158  A    between atoms: _356  and  _358
REMARK  159  A    between atoms: _358  and  _359
REMARK  160  A    between atoms: _358  and  _361
REMARK  161  A    between atoms: _361  and  _362
REMARK  162  A    between atoms: _368  and  _370
REMARK  163  A    between atoms: _370  and  _371
REMARK  164  A    between atoms: _370  and  _373
REMARK  165  A    between atoms: _373  and  _374
REMARK  166  A    between atoms: _377  and  _379
REMARK  167  A    between atoms: _379  and  _380
REMARK  168  A    between atoms: _379  and  _382
REMARK  169  A    between atoms: _382  and  _383
REMARK  170  A    between atoms: _388  and  _390
REMARK  171  A    between atoms: _390  and  _391
REMARK  172  A    between atoms: _390  and  _393
REMARK  173  A    between atoms: _393  and  _394
REMARK  174  A    between atoms: _394  and  _395
REMARK  175  A    between atoms: _395  and  _396
REMARK  176  A    between atoms: _396  and  _397
REMARK  177  A    between atoms: _402  and  _403
REMARK  178  A    between atoms: _408  and  _410
REMARK  179  A    between atoms: _410  and  _411
REMARK  180  A    between atoms: _410  and  _413
REMARK  181  A    between atoms: _413  and  _414
REMARK  182  A    between atoms: _414  and  _415
REMARK  183  A    between atoms: _420  and  _422
REMARK  184  A    between atoms: _422  and  _423
REMARK  185  A    between atoms: _422  and  _425
REMARK  186  A    between atoms: _425  and  _426
REMARK  187  A    between atoms: _431  and  _433
REMARK  188  A    between atoms: _433  and  _434
REMARK  189  A    between atoms: _433  and  _436
REMARK  190  A    between atoms: _436  and  _437
REMARK  191  A    between atoms: _440  and  _442
REMARK  192  A    between atoms: _442  and  _443
REMARK  193  A    between atoms: _442  and  _445
REMARK  194  A    between atoms: _445  and  _446
REMARK  195  A    between atoms: _449  and  _451
REMARK  196  A    between atoms: _451  and  _452
REMARK  197  A    between atoms: _451  and  _454
REMARK  198  A    between atoms: _454  and  _455
REMARK  199  A    between atoms: _458  and  _460
REMARK  200  A    between atoms: _460  and  _461
REMARK  201  A    between atoms: _460  and  _463
REMARK  202  A    between atoms: _463  and  _464
REMARK  203  A    between atoms: _464  and  _465
REMARK  204  A    between atoms: _465  and  _466
REMARK  205  A    between atoms: _466  and  _467
REMARK  206  A    between atoms: _471  and  _473
REMARK  207  A    between atoms: _473  and  _474
REMARK  208  A    between atoms: _473  and  _476
REMARK  209  A    between atoms: _476  and  _477
REMARK  210  A    between atoms: _480  and  _482
REMARK  211  A    between atoms: _482  and  _483
REMARK  212  A    between atoms: _486  and  _488
REMARK  213  A    between atoms: _488  and  _489
REMARK  214  A    between atoms: _488  and  _491
REMARK  215  A    between atoms: _491  and  _492
REMARK  216  A    between atoms: _495  and  _497
REMARK  217  A    between atoms: _497  and  _498
REMARK  218  A    between atoms: _497  and  _500
REMARK  219  A    between atoms: _500  and  _501
REMARK  220  A    between atoms: _507  and  _509
REMARK  221  A    between atoms: _509  and  _510
REMARK  222  A    between atoms: _509  and  _512
REMARK  223  A    between atoms: _512  and  _513
REMARK  224  A    between atoms: _516  and  _518
REMARK  225  A    between atoms: _518  and  _519
REMARK  226  A    between atoms: _518  and  _521
REMARK  227  A    between atoms: _521  and  _522
REMARK                            x       y       z     vdW  Elec       q    Type
REMARK                         _______ _______ _______ _____ _____    ______ ____
ROOT
ATOM      1  O   HOH     1      17.130  25.046  34.562  0.00  0.00    +0.000 OA
ENDROOT
TORSDOF 0
REMARK  Name = ../refined-set-2016/2xnb/2xnb_pocket.pdb
REMARK  227 active torsions:
REMARK  status: ('A' for Active; 'I' for Inactive)
REMARK    1  A    between atoms: _1  and  _3
REMARK    2  A    between atoms: _3  and  _4
REMARK    3  A    between atoms: _3  and  _6
REMARK    4  A    between atoms: _6  and  _7
REMARK    5  A    between atoms: _7  and  _8
REMARK    6  A    between atoms: _11  and  _13
REMARK    7  A    between atoms: _13  and  _14
REMARK    8  A    between atoms: _13  and  _16
REMARK    9  A    between atoms: _16  and  _17
REMARK   10  A    between atoms: _17  and  _18
REMARK   11  A    between atoms: _18  and  _19
REMARK   12  A    between atoms: _19  and  _20
REMARK   13  A    between atoms: _24  and  _26
REMARK   14  A    between atoms: _26  and  _27
REMARK   15  A    between atoms: _26  and  _29
REMARK   16  A    between atoms: _29  and  _30
REMARK   17  A    between atoms: _33  and  _35
REMARK   18  A    between atoms: _35  and  _36
REMARK   19  A    between atoms: _38  and  _40
REMARK   20  A    between atoms: _40  and  _41
REMARK   21  A    between atoms: _40  and  _43
REMARK   22  A    between atoms: _43  and  _44
REMARK   23  A    between atoms: _44  and  _45
REMARK   24  A    between atoms: _48  and  _50
REMARK   25  A    between atoms: _50  and  _51
REMARK   26  A    between atoms: _53  and  _55
REMARK   27  A    between atoms: _55  and  _56
REMARK   28  A    between atoms: _55  and  _58
REMARK   29  A    between atoms: _58  and  _59
REMARK   30  A    between atoms: _62  and  _64
REMARK   31  A    between atoms: _64  and  _65
REMARK   32  A    between atoms: _64  and  _67
REMARK   33  A    between atoms: _67  and  _68
REMARK   34  A    between atoms: _73  and  _74
REMARK   35  A    between atoms: _76  and  _78
REMARK   36  A    between atoms: _78  and  _79
REMARK   37  A    between atoms: _81  and  _83
REMARK   38  A    between atoms: _83  and  _84
REMARK   39  A    between atoms: _83  and  _86
REMARK   40  A    between atoms: _89  and  _91
REMARK   41  A    between atoms: _91  and  _92
REMARK   42  A    between atoms: _91  and  _94
REMARK   43  A    between atoms: _97  and  _99
REMARK   44  A    between atoms: _99  and  _100
REMARK   45  A    between atoms: _99  and  _102
REMARK   46  A    between atoms: _102  and  _103
REMARK   47  A    between atoms: _108  and  _109
REMARK   48  A    between atoms: _111  and  _113
REMARK   49  A    between atoms: _113  and  _114
REMARK   50  A    between atoms: _113  and  _116
REMARK   51  A    between atoms: _116  and  _117
REMARK   52  A    between atoms: _117  and  _118
REMARK   53  A    between atoms: _118  and  _119
REMARK   54  A    between atoms: _119  and  _120
REMARK   55  A    between atoms: _124  and  _126
REMARK   56  A    between atoms: _126  and  _127
REMARK   57  A    between atoms: _126  and  _129
REMARK   58  A    between atoms: _132  and  _134
REMARK   59  A    between atoms: _134  and  _135
REMARK   60  A    between atoms: _134  and  _137
REMARK   61  A    between atoms: _140  and  _142
REMARK   62  A    between atoms: _142  and  _143
REMARK   63  A    between atoms: _146  and  _148
REMARK   64  A    between atoms: _148  and  _149
REMARK   65  A    between atoms: _148  and  _151
REMARK   66  A    between atoms: _151  and  _152
REMARK   67  A    between atoms: _155  and  _157
REMARK   68  A    between atoms: _157  and  _158
REMARK   69  A    between atoms: _157  and  _160
REMARK   70  A    between atoms: _160  and  _161
REMARK   71  A    between atoms: _161  and  _162
REMARK   72  A    between atoms: _162  and  _163
REMARK   73  A    between atoms: _163  and  _164
REMARK   74  A    between atoms: _168  and  _170
REMARK   75  A    between atoms: _170  and  _171
REMARK   76  A    between atoms: _170  and  _173
REMARK   77  A    between atoms: _173  and  _174
REMARK   78  A    between atoms: _174  and  _175
REMARK   79  A    between atoms: _175  and  _176
REMARK   80  A    between atoms: _176  and  _177
REMARK   81  A    between atoms: _181  and  _183
REMARK   82  A    between atoms: _183  and  _184
REMARK   83  A    between atoms: _183  and  _186
REMARK   84  A    between atoms: _186  and  _187
REMARK   85  A    between atoms: _190  and  _192
REMARK   86  A    between atoms: _192  and  _193
REMARK   87  A    between atoms: _192  and  _195
REMARK   88  A    between atoms: _198  and  _200
REMARK   89  A    between atoms: _200  and  _201
REMARK   90  A    between atoms: _200  and  _203
REMARK   91  A    between atoms: _203  and  _204
REMARK   92  A    between atoms: _204  and  _205
REMARK   93  A    between atoms: _205  and  _206
REMARK   94  A    between atoms: _206  and  _207
REMARK   95  A    between atoms: _211  and  _213
REMARK   96  A    between atoms: _213  and  _214
REMARK   97  A    between atoms: _213  and  _216
REMARK   98  A    between atoms: _216  and  _217
REMARK   99  A    between atoms: _220  and  _222
REMARK  100  A    between atoms: _222  and  _223
REMARK  101  A    between atoms: _222  and  _225
REMARK  102  A    between atoms: _225  and  _226
REMARK  103  A    between atoms: _229  and  _231
REMARK  104  A    between atoms: _231  and  _232
REMARK  105  A    between atoms: _231  and  _234
REMARK  106  A    between atoms: _234  and  _235
REMARK  107  A    between atoms: _238  and  _240
REMARK  108  A    between atoms: _240  and  _241
REMARK  109  A    between atoms: _240  and  _243
REMARK  110  A    between atoms: _246  and  _248
REMARK  111  A    between atoms: _248  and  _249
REMARK  112  A    between atoms: _248  and  _251
REMARK  113  A    between atoms: _251  and  _252
REMARK  114  A    between atoms: _258  and  _260
REMARK  115  A    between atoms: _260  and  _261
REMARK  116  A    between atoms: _260  and  _263
REMARK  117  A    between atoms: _263  and  _264
REMARK  118  A    between atoms: _264  and  _265
REMARK  119  A    between atoms: _268  and  _270
REMARK  120  A    between atoms: _270  and  _271
REMARK  121  A    between atoms: _270  and  _273
REMARK  122  A    between atoms: _273  and  _274
REMARK  123  A    between atoms: _280  and  _282
REMARK  124  A    between atoms: _282  and  _283
REMARK  125  A    between atoms: _282  and  _285
REMARK  126  A    between atoms: _285  and  _286
REMARK  127  A    between atoms: _289  and  _291
REMARK  128  A    between atoms: _291  and  _292
REMARK  129  A    between atoms: _291  and  _294
REMARK  130  A    between atoms: _294  and  _295
REMARK  131  A    between atoms: _300  and  _302
REMARK  132  A    between atoms: _302  and  _303
REMARK  133  A    between atoms: _302  and  _305
REMARK  134  A    between atoms: _305  and  _306
REMARK  135  A    between atoms: _306  and  _307
REMARK  136  A    between atoms: _312  and  _314
REMARK  137  A    between atoms: _314  and  _315
REMARK  138  A    between atoms: _314  and  _317
REMARK  139  A    between atoms: _317  and  _318
REMARK  140  A    between atoms: _321  and  _323
REMARK  141  A    between atoms: _323  and  _324
REMARK  142  A    between atoms: _323  and  _326
REMARK  143  A    between atoms: _326  and  _327
REMARK  144  A    between atoms: _330  and  _332
REMARK  145  A    between atoms: _332  and  _333
REMARK  146  A    between atoms: _332  and  _335
REMARK  147  A    between atoms: _335  and  _336
REMARK  148  A    between atoms: _336  and  _337
REMARK  149  A    between atoms: _337  and  _338
REMARK  150  A    between atoms: _338  and  _339
REMARK  151  A    between atoms: _343  and  _345
REMARK  152  A    between atoms: _345  and  _346
REMARK  153  A    between atoms: _345  and  _348
REMARK  154  A    between atoms: _348  and  _349
REMARK  155  A    between atoms: _349  and  _350
REMARK  156  A    between atoms: _350  and  _351
REMARK  157  A    between atoms: _351  and  _352
REMARK  158  A    between atoms: _356  and  _358
REMARK  159  A    between atoms: _358  and  _359
REMARK  160  A    between atoms: _358  and  _361
REMARK  161  A    between atoms: _361  and  _362
REMARK  162  A    between atoms: _368  and  _370
REMARK  163  A    between atoms: _370  and  _371
REMARK  164  A    between atoms: _370  and  _373
REMARK  165  A    between atoms: _373  and  _374
REMARK  166  A    between atoms: _377  and  _379
REMARK  167  A    between atoms: _379  and  _380
REMARK  168  A    between atoms: _379  and  _382
REMARK  169  A    between atoms: _382  and  _383
REMARK  170  A    between atoms: _388  and  _390
REMARK  171  A    between atoms: _390  and  _391
REMARK  172  A    between atoms: _390  and  _393
REMARK  173  A    between atoms: _393  and  _394
REMARK  174  A    between atoms: _394  and  _395
REMARK  175  A    between atoms: _395  and  _396
REMARK  176  A    between atoms: _396  and  _397
REMARK  177  A    between atoms: _402  and  _403
REMARK  178  A    between atoms: _408  and  _410
REMARK  179  A    between atoms: _410  and  _411
REMARK  180  A    between atoms: _410  and  _413
REMARK  181  A    between atoms: _413  and  _414
REMARK  182  A    between atoms: _414  and  _415
REMARK  183  A    between atoms: _420  and  _422
REMARK  184  A    between atoms: _422  and  _423
REMARK  185  A    between atoms: _422  and  _425
REMARK  186  A    between atoms: _425  and  _426
REMARK  187  A    between atoms: _431  and  _433
REMARK  188  A    between atoms: _433  and  _434
REMARK  189  A    between atoms: _433  and  _436
REMARK  190  A    between atoms: _436  and  _437
REMARK  191  A    between atoms: _440  and  _442
REMARK  192  A    between atoms: _442  and  _443
REMARK  193  A    between atoms: _442  and  _445
REMARK  194  A    between atoms: _445  and  _446
REMARK  195  A    between atoms: _449  and  _451
REMARK  196  A    between atoms: _451  and  _452
REMARK  197  A    between atoms: _451  and  _454
REMARK  198  A    between atoms: _454  and  _455
REMARK  199  A    between atoms: _458  and  _460
REMARK  200  A    between atoms: _460  and  _461
REMARK  201  A    between atoms: _460  and  _463
REMARK  202  A    between atoms: _463  and  _464
REMARK  203  A    between atoms: _464  and  _465
REMARK  204  A    between atoms: _465  and  _466
REMARK  205  A    between atoms: _466  and  _467
REMARK  206  A    between atoms: _471  and  _473
REMARK  207  A    between atoms: _473  and  _474
REMARK  208  A    between atoms: _473  and  _476
REMARK  209  A    between atoms: _476  and  _477
REMARK  210  A    between atoms: _480  and  _482
REMARK  211  A    between atoms: _482  and  _483
REMARK  212  A    between atoms: _486  and  _488
REMARK  213  A    between atoms: _488  and  _489
REMARK  214  A    between atoms: _488  and  _491
REMARK  215  A    between atoms: _491  and  _492
REMARK  216  A    between atoms: _495  and  _497
REMARK  217  A    between atoms: _497  and  _498
REMARK  218  A    between atoms: _497  and  _500
REMARK  219  A    between atoms: _500  and  _501
REMARK  220  A    between atoms: _507  and  _509
REMARK  221  A    between atoms: _509  and  _510
REMARK  222  A    between atoms: _509  and  _512
REMARK  223  A    between atoms: _512  and  _513
REMARK  224  A    between atoms: _516  and  _518
REMARK  225  A    between atoms: _518  and  _519
REMARK  226  A    between atoms: _518  and  _521
REMARK  227  A    between atoms: _521  and  _522
REMARK                            x       y       z     vdW  Elec       q    Type
REMARK                         _______ _______ _______ _____ _____    ______ ____
ROOT
ATOM      1  O   HOH     1      25.698  36.989  33.977  0.00  0.00    +0.000 OA
ENDROOT
TORSDOF 0
REMARK  Name = ../refined-set-2016/2xnb/2xnb_pocket.pdb
REMARK  227 active torsions:
REMARK  status: ('A' for Active; 'I' for Inactive)
REMARK    1  A    between atoms: _1  and  _3
REMARK    2  A    between atoms: _3  and  _4
REMARK    3  A    between atoms: _3  and  _6
REMARK    4  A    between atoms: _6  and  _7
REMARK    5  A    between atoms: _7  and  _8
REMARK    6  A    between atoms: _11  and  _13
REMARK    7  A    between atoms: _13  and  _14
REMARK    8  A    between atoms: _13  and  _16
REMARK    9  A    between atoms: _16  and  _17
REMARK   10  A    between atoms: _17  and  _18
REMARK   11  A    between atoms: _18  and  _19
REMARK   12  A    between atoms: _19  and  _20
REMARK   13  A    between atoms: _24  and  _26
REMARK   14  A    between atoms: _26  and  _27
REMARK   15  A    between atoms: _26  and  _29
REMARK   16  A    between atoms: _29  and  _30
REMARK   17  A    between atoms: _33  and  _35
REMARK   18  A    between atoms: _35  and  _36
REMARK   19  A    between atoms: _38  and  _40
REMARK   20  A    between atoms: _40  and  _41
REMARK   21  A    between atoms: _40  and  _43
REMARK   22  A    between atoms: _43  and  _44
REMARK   23  A    between atoms: _44  and  _45
REMARK   24  A    between atoms: _48  and  _50
REMARK   25  A    between atoms: _50  and  _51
REMARK   26  A    between atoms: _53  and  _55
REMARK   27  A    between atoms: _55  and  _56
REMARK   28  A    between atoms: _55  and  _58
REMARK   29  A    between atoms: _58  and  _59
REMARK   30  A    between atoms: _62  and  _64
REMARK   31  A    between atoms: _64  and  _65
REMARK   32  A    between atoms: _64  and  _67
REMARK   33  A    between atoms: _67  and  _68
REMARK   34  A    between atoms: _73  and  _74
REMARK   35  A    between atoms: _76  and  _78
REMARK   36  A    between atoms: _78  and  _79
REMARK   37  A    between atoms: _81  and  _83
REMARK   38  A    between atoms: _83  and  _84
REMARK   39  A    between atoms: _83  and  _86
REMARK   40  A    between atoms: _89  and  _91
REMARK   41  A    between atoms: _91  and  _92
REMARK   42  A    between atoms: _91  and  _94
REMARK   43  A    between atoms: _97  and  _99
REMARK   44  A    between atoms: _99  and  _100
REMARK   45  A    between atoms: _99  and  _102
REMARK   46  A    between atoms: _102  and  _103
REMARK   47  A    between atoms: _108  and  _109
REMARK   48  A    between atoms: _111  and  _113
REMARK   49  A    between atoms: _113  and  _114
REMARK   50  A    between atoms: _113  and  _116
REMARK   51  A    between atoms: _116  and  _117
REMARK   52  A    between atoms: _117  and  _118
REMARK   53  A    between atoms: _118  and  _119
REMARK   54  A    between atoms: _119  and  _120
REMARK   55  A    between atoms: _124  and  _126
REMARK   56  A    between atoms: _126  and  _127
REMARK   57  A    between atoms: _126  and  _129
REMARK   58  A    between atoms: _132  and  _134
REMARK   59  A    between atoms: _134  and  _135
REMARK   60  A    between atoms: _134  and  _137
REMARK   61  A    between atoms: _140  and  _142
REMARK   62  A    between atoms: _142  and  _143
REMARK   63  A    between atoms: _146  and  _148
REMARK   64  A    between atoms: _148  and  _149
REMARK   65  A    between atoms: _148  and  _151
REMARK   66  A    between atoms: _151  and  _152
REMARK   67  A    between atoms: _155  and  _157
REMARK   68  A    between atoms: _157  and  _158
REMARK   69  A    between atoms: _157  and  _160
REMARK   70  A    between atoms: _160  and  _161
REMARK   71  A    between atoms: _161  and  _162
REMARK   72  A    between atoms: _162  and  _163
REMARK   73  A    between atoms: _163  and  _164
REMARK   74  A    between atoms: _168  and  _170
REMARK   75  A    between atoms: _170  and  _171
REMARK   76  A    between atoms: _170  and  _173
REMARK   77  A    between atoms: _173  and  _174
REMARK   78  A    between atoms: _174  and  _175
REMARK   79  A    between atoms: _175  and  _176
REMARK   80  A    between atoms: _176  and  _177
REMARK   81  A    between atoms: _181  and  _183
REMARK   82  A    between atoms: _183  and  _184
REMARK   83  A    between atoms: _183  and  _186
REMARK   84  A    between atoms: _186  and  _187
REMARK   85  A    between atoms: _190  and  _192
REMARK   86  A    between atoms: _192  and  _193
REMARK   87  A    between atoms: _192  and  _195
REMARK   88  A    between atoms: _198  and  _200
REMARK   89  A    between atoms: _200  and  _201
REMARK   90  A    between atoms: _200  and  _203
REMARK   91  A    between atoms: _203  and  _204
REMARK   92  A    between atoms: _204  and  _205
REMARK   93  A    between atoms: _205  and  _206
REMARK   94  A    between atoms: _206  and  _207
REMARK   95  A    between atoms: _211  and  _213
REMARK   96  A    between atoms: _213  and  _214
REMARK   97  A    between atoms: _213  and  _216
REMARK   98  A    between atoms: _216  and  _217
REMARK   99  A    between atoms: _220  and  _222
REMARK  100  A    between atoms: _222  and  _223
REMARK  101  A    between atoms: _222  and  _225
REMARK  102  A    between atoms: _225  and  _226
REMARK  103  A    between atoms: _229  and  _231
REMARK  104  A    between atoms: _231  and  _232
REMARK  105  A    between atoms: _231  and  _234
REMARK  106  A    between atoms: _234  and  _235
REMARK  107  A    between atoms: _238  and  _240
REMARK  108  A    between atoms: _240  and  _241
REMARK  109  A    between atoms: _240  and  _243
REMARK  110  A    between atoms: _246  and  _248
REMARK  111  A    between atoms: _248  and  _249
REMARK  112  A    between atoms: _248  and  _251
REMARK  113  A    between atoms: _251  and  _252
REMARK  114  A    between atoms: _258  and  _260
REMARK  115  A    between atoms: _260  and  _261
REMARK  116  A    between atoms: _260  and  _263
REMARK  117  A    between atoms: _263  and  _264
REMARK  118  A    between atoms: _264  and  _265
REMARK  119  A    between atoms: _268  and  _270
REMARK  120  A    between atoms: _270  and  _271
REMARK  121  A    between atoms: _270  and  _273
REMARK  122  A    between atoms: _273  and  _274
REMARK  123  A    between atoms: _280  and  _282
REMARK  124  A    between atoms: _282  and  _283
REMARK  125  A    between atoms: _282  and  _285
REMARK  126  A    between atoms: _285  and  _286
REMARK  127  A    between atoms: _289  and  _291
REMARK  128  A    between atoms: _291  and  _292
REMARK  129  A    between atoms: _291  and  _294
REMARK  130  A    between atoms: _294  and  _295
REMARK  131  A    between atoms: _300  and  _302
REMARK  132  A    between atoms: _302  and  _303
REMARK  133  A    between atoms: _302  and  _305
REMARK  134  A    between atoms: _305  and  _306
REMARK  135  A    between atoms: _306  and  _307
REMARK  136  A    between atoms: _312  and  _314
REMARK  137  A    between atoms: _314  and  _315
REMARK  138  A    between atoms: _314  and  _317
REMARK  139  A    between atoms: _317  and  _318
REMARK  140  A    between atoms: _321  and  _323
REMARK  141  A    between atoms: _323  and  _324
REMARK  142  A    between atoms: _323  and  _326
REMARK  143  A    between atoms: _326  and  _327
REMARK  144  A    between atoms: _330  and  _332
REMARK  145  A    between atoms: _332  and  _333
REMARK  146  A    between atoms: _332  and  _335
REMARK  147  A    between atoms: _335  and  _336
REMARK  148  A    between atoms: _336  and  _337
REMARK  149  A    between atoms: _337  and  _338
REMARK  150  A    between atoms: _338  and  _339
REMARK  151  A    between atoms: _343  and  _345
REMARK  152  A    between atoms: _345  and  _346
REMARK  153  A    between atoms: _345  and  _348
REMARK  154  A    between atoms: _348  and  _349
REMARK  155  A    between atoms: _349  and  _350
REMARK  156  A    between atoms: _350  and  _351
REMARK  157  A    between atoms: _351  and  _352
REMARK  158  A    between atoms: _356  and  _358
REMARK  159  A    between atoms: _358  and  _359
REMARK  160  A    between atoms: _358  and  _361
REMARK  161  A    between atoms: _361  and  _362
REMARK  162  A    between atoms: _368  and  _370
REMARK  163  A    between atoms: _370  and  _371
REMARK  164  A    between atoms: _370  and  _373
REMARK  165  A    between atoms: _373  and  _374
REMARK  166  A    between atoms: _377  and  _379
REMARK  167  A    between atoms: _379  and  _380
REMARK  168  A    between atoms: _379  and  _382
REMARK  169  A    between atoms: _382  and  _383
REMARK  170  A    between atoms: _388  and  _390
REMARK  171  A    between atoms: _390  and  _391
REMARK  172  A    between atoms: _390  and  _393
REMARK  173  A    between atoms: _393  and  _394
REMARK  174  A    between atoms: _394  and  _395
REMARK  175  A    between atoms: _395  and  _396
REMARK  176  A    between atoms: _396  and  _397
REMARK  177  A    between atoms: _402  and  _403
REMARK  178  A    between atoms: _408  and  _410
REMARK  179  A    between atoms: _410  and  _411
REMARK  180  A    between atoms: _410  and  _413
REMARK  181  A    between atoms: _413  and  _414
REMARK  182  A    between atoms: _414  and  _415
REMARK  183  A    between atoms: _420  and  _422
REMARK  184  A    between atoms: _422  and  _423
REMARK  185  A    between atoms: _422  and  _425
REMARK  186  A    between atoms: _425  and  _426
REMARK  187  A    between atoms: _431  and  _433
REMARK  188  A    between atoms: _433  and  _434
REMARK  189  A    between atoms: _433  and  _436
REMARK  190  A    between atoms: _436  and  _437
REMARK  191  A    between atoms: _440  and  _442
REMARK  192  A    between atoms: _442  and  _443
REMARK  193  A    between atoms: _442  and  _445
REMARK  194  A    between atoms: _445  and  _446
REMARK  195  A    between atoms: _449  and  _451
REMARK  196  A    between atoms: _451  and  _452
REMARK  197  A    between atoms: _451  and  _454
REMARK  198  A    between atoms: _454  and  _455
REMARK  199  A    between atoms: _458  and  _460
REMARK  200  A    between atoms: _460  and  _461
REMARK  201  A    between atoms: _460  and  _463
REMARK  202  A    between atoms: _463  and  _464
REMARK  203  A    between atoms: _464  and  _465
REMARK  204  A    between atoms: _465  and  _466
REMARK  205  A    between atoms: _466  and  _467
REMARK  206  A    between atoms: _471  and  _473
REMARK  207  A    between atoms: _473  and  _474
REMARK  208  A    between atoms: _473  and  _476
REMARK  209  A    between atoms: _476  and  _477
REMARK  210  A    between atoms: _480  and  _482
REMARK  211  A    between atoms: _482  and  _483
REMARK  212  A    between atoms: _486  and  _488
REMARK  213  A    between atoms: _488  and  _489
REMARK  214  A    between atoms: _488  and  _491
REMARK  215  A    between atoms: _491  and  _492
REMARK  216  A    between atoms: _495  and  _497
REMARK  217  A    between atoms: _497  and  _498
REMARK  218  A    between atoms: _497  and  _500
REMARK  219  A    between atoms: _500  and  _501
REMARK  220  A    between atoms: _507  and  _509
REMARK  221  A    between atoms: _509  and  _510
REMARK  222  A    between atoms: _509  and  _512
REMARK  223  A    between atoms: _512  and  _513
REMARK  224  A    between atoms: _516  and  _518
REMARK  225  A    between atoms: _518  and  _519
REMARK  226  A    between atoms: _518  and  _521
REMARK  227  A    between atoms: _521  and  _522
REMARK                            x       y       z     vdW  Elec       q    Type
REMARK                         _______ _______ _______ _____ _____    ______ ____
ROOT
ATOM      1  O   HOH     1      31.167  37.767  22.779  0.00  0.00    +0.000 OA
ENDROOT
TORSDOF 0
REMARK  Name = ../refined-set-2016/2xnb/2xnb_pocket.pdb
REMARK  227 active torsions:
REMARK  status: ('A' for Active; 'I' for Inactive)
REMARK    1  A    between atoms: _1  and  _3
REMARK    2  A    between atoms: _3  and  _4
REMARK    3  A    between atoms: _3  and  _6
REMARK    4  A    between atoms: _6  and  _7
REMARK    5  A    between atoms: _7  and  _8
REMARK    6  A    between atoms: _11  and  _13
REMARK    7  A    between atoms: _13  and  _14
REMARK    8  A    between atoms: _13  and  _16
REMARK    9  A    between atoms: _16  and  _17
REMARK   10  A    between atoms: _17  and  _18
REMARK   11  A    between atoms: _18  and  _19
REMARK   12  A    between atoms: _19  and  _20
REMARK   13  A    between atoms: _24  and  _26
REMARK   14  A    between atoms: _26  and  _27
REMARK   15  A    between atoms: _26  and  _29
REMARK   16  A    between atoms: _29  and  _30
REMARK   17  A    between atoms: _33  and  _35
REMARK   18  A    between atoms: _35  and  _36
REMARK   19  A    between atoms: _38  and  _40
REMARK   20  A    between atoms: _40  and  _41
REMARK   21  A    between atoms: _40  and  _43
REMARK   22  A    between atoms: _43  and  _44
REMARK   23  A    between atoms: _44  and  _45
REMARK   24  A    between atoms: _48  and  _50
REMARK   25  A    between atoms: _50  and  _51
REMARK   26  A    between atoms: _53  and  _55
REMARK   27  A    between atoms: _55  and  _56
REMARK   28  A    between atoms: _55  and  _58
REMARK   29  A    between atoms: _58  and  _59
REMARK   30  A    between atoms: _62  and  _64
REMARK   31  A    between atoms: _64  and  _65
REMARK   32  A    between atoms: _64  and  _67
REMARK   33  A    between atoms: _67  and  _68
REMARK   34  A    between atoms: _73  and  _74
REMARK   35  A    between atoms: _76  and  _78
REMARK   36  A    between atoms: _78  and  _79
REMARK   37  A    between atoms: _81  and  _83
REMARK   38  A    between atoms: _83  and  _84
REMARK   39  A    between atoms: _83  and  _86
REMARK   40  A    between atoms: _89  and  _91
REMARK   41  A    between atoms: _91  and  _92
REMARK   42  A    between atoms: _91  and  _94
REMARK   43  A    between atoms: _97  and  _99
REMARK   44  A    between atoms: _99  and  _100
REMARK   45  A    between atoms: _99  and  _102
REMARK   46  A    between atoms: _102  and  _103
REMARK   47  A    between atoms: _108  and  _109
REMARK   48  A    between atoms: _111  and  _113
REMARK   49  A    between atoms: _113  and  _114
REMARK   50  A    between atoms: _113  and  _116
REMARK   51  A    between atoms: _116  and  _117
REMARK   52  A    between atoms: _117  and  _118
REMARK   53  A    between atoms: _118  and  _119
REMARK   54  A    between atoms: _119  and  _120
REMARK   55  A    between atoms: _124  and  _126
REMARK   56  A    between atoms: _126  and  _127
REMARK   57  A    between atoms: _126  and  _129
REMARK   58  A    between atoms: _132  and  _134
REMARK   59  A    between atoms: _134  and  _135
REMARK   60  A    between atoms: _134  and  _137
REMARK   61  A    between atoms: _140  and  _142
REMARK   62  A    between atoms: _142  and  _143
REMARK   63  A    between atoms: _146  and  _148
REMARK   64  A    between atoms: _148  and  _149
REMARK   65  A    between atoms: _148  and  _151
REMARK   66  A    between atoms: _151  and  _152
REMARK   67  A    between atoms: _155  and  _157
REMARK   68  A    between atoms: _157  and  _158
REMARK   69  A    between atoms: _157  and  _160
REMARK   70  A    between atoms: _160  and  _161
REMARK   71  A    between atoms: _161  and  _162
REMARK   72  A    between atoms: _162  and  _163
REMARK   73  A    between atoms: _163  and  _164
REMARK   74  A    between atoms: _168  and  _170
REMARK   75  A    between atoms: _170  and  _171
REMARK   76  A    between atoms: _170  and  _173
REMARK   77  A    between atoms: _173  and  _174
REMARK   78  A    between atoms: _174  and  _175
REMARK   79  A    between atoms: _175  and  _176
REMARK   80  A    between atoms: _176  and  _177
REMARK   81  A    between atoms: _181  and  _183
REMARK   82  A    between atoms: _183  and  _184
REMARK   83  A    between atoms: _183  and  _186
REMARK   84  A    between atoms: _186  and  _187
REMARK   85  A    between atoms: _190  and  _192
REMARK   86  A    between atoms: _192  and  _193
REMARK   87  A    between atoms: _192  and  _195
REMARK   88  A    between atoms: _198  and  _200
REMARK   89  A    between atoms: _200  and  _201
REMARK   90  A    between atoms: _200  and  _203
REMARK   91  A    between atoms: _203  and  _204
REMARK   92  A    between atoms: _204  and  _205
REMARK   93  A    between atoms: _205  and  _206
REMARK   94  A    between atoms: _206  and  _207
REMARK   95  A    between atoms: _211  and  _213
REMARK   96  A    between atoms: _213  and  _214
REMARK   97  A    between atoms: _213  and  _216
REMARK   98  A    between atoms: _216  and  _217
REMARK   99  A    between atoms: _220  and  _222
REMARK  100  A    between atoms: _222  and  _223
REMARK  101  A    between atoms: _222  and  _225
REMARK  102  A    between atoms: _225  and  _226
REMARK  103  A    between atoms: _229  and  _231
REMARK  104  A    between atoms: _231  and  _232
REMARK  105  A    between atoms: _231  and  _234
REMARK  106  A    between atoms: _234  and  _235
REMARK  107  A    between atoms: _238  and  _240
REMARK  108  A    between atoms: _240  and  _241
REMARK  109  A    between atoms: _240  and  _243
REMARK  110  A    between atoms: _246  and  _248
REMARK  111  A    between atoms: _248  and  _249
REMARK  112  A    between atoms: _248  and  _251
REMARK  113  A    between atoms: _251  and  _252
REMARK  114  A    between atoms: _258  and  _260
REMARK  115  A    between atoms: _260  and  _261
REMARK  116  A    between atoms: _260  and  _263
REMARK  117  A    between atoms: _263  and  _264
REMARK  118  A    between atoms: _264  and  _265
REMARK  119  A    between atoms: _268  and  _270
REMARK  120  A    between atoms: _270  and  _271
REMARK  121  A    between atoms: _270  and  _273
REMARK  122  A    between atoms: _273  and  _274
REMARK  123  A    between atoms: _280  and  _282
REMARK  124  A    between atoms: _282  and  _283
REMARK  125  A    between atoms: _282  and  _285
REMARK  126  A    between atoms: _285  and  _286
REMARK  127  A    between atoms: _289  and  _291
REMARK  128  A    between atoms: _291  and  _292
REMARK  129  A    between atoms: _291  and  _294
REMARK  130  A    between atoms: _294  and  _295
REMARK  131  A    between atoms: _300  and  _302
REMARK  132  A    between atoms: _302  and  _303
REMARK  133  A    between atoms: _302  and  _305
REMARK  134  A    between atoms: _305  and  _306
REMARK  135  A    between atoms: _306  and  _307
REMARK  136  A    between atoms: _312  and  _314
REMARK  137  A    between atoms: _314  and  _315
REMARK  138  A    between atoms: _314  and  _317
REMARK  139  A    between atoms: _317  and  _318
REMARK  140  A    between atoms: _321  and  _323
REMARK  141  A    between atoms: _323  and  _324
REMARK  142  A    between atoms: _323  and  _326
REMARK  143  A    between atoms: _326  and  _327
REMARK  144  A    between atoms: _330  and  _332
REMARK  145  A    between atoms: _332  and  _333
REMARK  146  A    between atoms: _332  and  _335
REMARK  147  A    between atoms: _335  and  _336
REMARK  148  A    between atoms: _336  and  _337
REMARK  149  A    between atoms: _337  and  _338
REMARK  150  A    between atoms: _338  and  _339
REMARK  151  A    between atoms: _343  and  _345
REMARK  152  A    between atoms: _345  and  _346
REMARK  153  A    between atoms: _345  and  _348
REMARK  154  A    between atoms: _348  and  _349
REMARK  155  A    between atoms: _349  and  _350
REMARK  156  A    between atoms: _350  and  _351
REMARK  157  A    between atoms: _351  and  _352
REMARK  158  A    between atoms: _356  and  _358
REMARK  159  A    between atoms: _358  and  _359
REMARK  160  A    between atoms: _358  and  _361
REMARK  161  A    between atoms: _361  and  _362
REMARK  162  A    between atoms: _368  and  _370
REMARK  163  A    between atoms: _370  and  _371
REMARK  164  A    between atoms: _370  and  _373
REMARK  165  A    between atoms: _373  and  _374
REMARK  166  A    between atoms: _377  and  _379
REMARK  167  A    between atoms: _379  and  _380
REMARK  168  A    between atoms: _379  and  _382
REMARK  169  A    between atoms: _382  and  _383
REMARK  170  A    between atoms: _388  and  _390
REMARK  171  A    between atoms: _390  and  _391
REMARK  172  A    between atoms: _390  and  _393
REMARK  173  A    between atoms: _393  and  _394
REMARK  174  A    between atoms: _394  and  _395
REMARK  175  A    between atoms: _395  and  _396
REMARK  176  A    between atoms: _396  and  _397
REMARK  177  A    between atoms: _402  and  _403
REMARK  178  A    between atoms: _408  and  _410
REMARK  179  A    between atoms: _410  and  _411
REMARK  180  A    between atoms: _410  and  _413
REMARK  181  A    between atoms: _413  and  _414
REMARK  182  A    between atoms: _414  and  _415
REMARK  183  A    between atoms: _420  and  _422
REMARK  184  A    between atoms: _422  and  _423
REMARK  185  A    between atoms: _422  and  _425
REMARK  186  A    between atoms: _425  and  _426
REMARK  187  A    between atoms: _431  and  _433
REMARK  188  A    between atoms: _433  and  _434
REMARK  189  A    between atoms: _433  and  _436
REMARK  190  A    between atoms: _436  and  _437
REMARK  191  A    between atoms: _440  and  _442
REMARK  192  A    between atoms: _442  and  _443
REMARK  193  A    between atoms: _442  and  _445
REMARK  194  A    between atoms: _445  and  _446
REMARK  195  A    between atoms: _449  and  _451
REMARK  196  A    between atoms: _451  and  _452
REMARK  197  A    between atoms: _451  and  _454
REMARK  198  A    between atoms: _454  and  _455
REMARK  199  A    between atoms: _458  and  _460
REMARK  200  A    between atoms: _460  and  _461
REMARK  201  A    between atoms: _460  and  _463
REMARK  202  A    between atoms: _463  and  _464
REMARK  203  A    between atoms: _464  and  _465
REMARK  204  A    between atoms: _465  and  _466
REMARK  205  A    between atoms: _466  and  _467
REMARK  206  A    between atoms: _471  and  _473
REMARK  207  A    between atoms: _473  and  _474
REMARK  208  A    between atoms: _473  and  _476
REMARK  209  A    between atoms: _476  and  _477
REMARK  210  A    between atoms: _480  and  _482
REMARK  211  A    between atoms: _482  and  _483
REMARK  212  A    between atoms: _486  and  _488
REMARK  213  A    between atoms: _488  and  _489
REMARK  214  A    between atoms: _488  and  _491
REMARK  215  A    between atoms: _491  and  _492
REMARK  216  A    between atoms: _495  and  _497
REMARK  217  A    between atoms: _497  and  _498
REMARK  218  A    between atoms: _497  and  _500
REMARK  219  A    between atoms: _500  and  _501
REMARK  220  A    between atoms: _507  and  _509
REMARK  221  A    between atoms: _509  and  _510
REMARK  222  A    between atoms: _509  and  _512
REMARK  223  A    between atoms: _512  and  _513
REMARK  224  A    between atoms: _516  and  _518
REMARK  225  A    between atoms: _518  and  _519
REMARK  226  A    between atoms: _518  and  _521
REMARK  227  A    between atoms: _521  and  _522
REMARK                            x       y       z     vdW  Elec       q    Type
REMARK                         _______ _______ _______ _____ _____    ______ ____
ROOT
ATOM      1  O   HOH     1      18.386  34.731  31.238  0.00  0.00    +0.000 OA
ENDROOT
TORSDOF 0
REMARK  Name = ../refined-set-2016/2xnb/2xnb_pocket.pdb
REMARK  227 active torsions:
REMARK  status: ('A' for Active; 'I' for Inactive)
REMARK    1  A    between atoms: _1  and  _3
REMARK    2  A    between atoms: _3  and  _4
REMARK    3  A    between atoms: _3  and  _6
REMARK    4  A    between atoms: _6  and  _7
REMARK    5  A    between atoms: _7  and  _8
REMARK    6  A    between atoms: _11  and  _13
REMARK    7  A    between atoms: _13  and  _14
REMARK    8  A    between atoms: _13  and  _16
REMARK    9  A    between atoms: _16  and  _17
REMARK   10  A    between atoms: _17  and  _18
REMARK   11  A    between atoms: _18  and  _19
REMARK   12  A    between atoms: _19  and  _20
REMARK   13  A    between atoms: _24  and  _26
REMARK   14  A    between atoms: _26  and  _27
REMARK   15  A    between atoms: _26  and  _29
REMARK   16  A    between atoms: _29  and  _30
REMARK   17  A    between atoms: _33  and  _35
REMARK   18  A    between atoms: _35  and  _36
REMARK   19  A    between atoms: _38  and  _40
REMARK   20  A    between atoms: _40  and  _41
REMARK   21  A    between atoms: _40  and  _43
REMARK   22  A    between atoms: _43  and  _44
REMARK   23  A    between atoms: _44  and  _45
REMARK   24  A    between atoms: _48  and  _50
REMARK   25  A    between atoms: _50  and  _51
REMARK   26  A    between atoms: _53  and  _55
REMARK   27  A    between atoms: _55  and  _56
REMARK   28  A    between atoms: _55  and  _58
REMARK   29  A    between atoms: _58  and  _59
REMARK   30  A    between atoms: _62  and  _64
REMARK   31  A    between atoms: _64  and  _65
REMARK   32  A    between atoms: _64  and  _67
REMARK   33  A    between atoms: _67  and  _68
REMARK   34  A    between atoms: _73  and  _74
REMARK   35  A    between atoms: _76  and  _78
REMARK   36  A    between atoms: _78  and  _79
REMARK   37  A    between atoms: _81  and  _83
REMARK   38  A    between atoms: _83  and  _84
REMARK   39  A    between atoms: _83  and  _86
REMARK   40  A    between atoms: _89  and  _91
REMARK   41  A    between atoms: _91  and  _92
REMARK   42  A    between atoms: _91  and  _94
REMARK   43  A    between atoms: _97  and  _99
REMARK   44  A    between atoms: _99  and  _100
REMARK   45  A    between atoms: _99  and  _102
REMARK   46  A    between atoms: _102  and  _103
REMARK   47  A    between atoms: _108  and  _109
REMARK   48  A    between atoms: _111  and  _113
REMARK   49  A    between atoms: _113  and  _114
REMARK   50  A    between atoms: _113  and  _116
REMARK   51  A    between atoms: _116  and  _117
REMARK   52  A    between atoms: _117  and  _118
REMARK   53  A    between atoms: _118  and  _119
REMARK   54  A    between atoms: _119  and  _120
REMARK   55  A    between atoms: _124  and  _126
REMARK   56  A    between atoms: _126  and  _127
REMARK   57  A    between atoms: _126  and  _129
REMARK   58  A    between atoms: _132  and  _134
REMARK   59  A    between atoms: _134  and  _135
REMARK   60  A    between atoms: _134  and  _137
REMARK   61  A    between atoms: _140  and  _142
REMARK   62  A    between atoms: _142  and  _143
REMARK   63  A    between atoms: _146  and  _148
REMARK   64  A    between atoms: _148  and  _149
REMARK   65  A    between atoms: _148  and  _151
REMARK   66  A    between atoms: _151  and  _152
REMARK   67  A    between atoms: _155  and  _157
REMARK   68  A    between atoms: _157  and  _158
REMARK   69  A    between atoms: _157  and  _160
REMARK   70  A    between atoms: _160  and  _161
REMARK   71  A    between atoms: _161  and  _162
REMARK   72  A    between atoms: _162  and  _163
REMARK   73  A    between atoms: _163  and  _164
REMARK   74  A    between atoms: _168  and  _170
REMARK   75  A    between atoms: _170  and  _171
REMARK   76  A    between atoms: _170  and  _173
REMARK   77  A    between atoms: _173  and  _174
REMARK   78  A    between atoms: _174  and  _175
REMARK   79  A    between atoms: _175  and  _176
REMARK   80  A    between atoms: _176  and  _177
REMARK   81  A    between atoms: _181  and  _183
REMARK   82  A    between atoms: _183  and  _184
REMARK   83  A    between atoms: _183  and  _186
REMARK   84  A    between atoms: _186  and  _187
REMARK   85  A    between atoms: _190  and  _192
REMARK   86  A    between atoms: _192  and  _193
REMARK   87  A    between atoms: _192  and  _195
REMARK   88  A    between atoms: _198  and  _200
REMARK   89  A    between atoms: _200  and  _201
REMARK   90  A    between atoms: _200  and  _203
REMARK   91  A    between atoms: _203  and  _204
REMARK   92  A    between atoms: _204  and  _205
REMARK   93  A    between atoms: _205  and  _206
REMARK   94  A    between atoms: _206  and  _207
REMARK   95  A    between atoms: _211  and  _213
REMARK   96  A    between atoms: _213  and  _214
REMARK   97  A    between atoms: _213  and  _216
REMARK   98  A    between atoms: _216  and  _217
REMARK   99  A    between atoms: _220  and  _222
REMARK  100  A    between atoms: _222  and  _223
REMARK  101  A    between atoms: _222  and  _225
REMARK  102  A    between atoms: _225  and  _226
REMARK  103  A    between atoms: _229  and  _231
REMARK  104  A    between atoms: _231  and  _232
REMARK  105  A    between atoms: _231  and  _234
REMARK  106  A    between atoms: _234  and  _235
REMARK  107  A    between atoms: _238  and  _240
REMARK  108  A    between atoms: _240  and  _241
REMARK  109  A    between atoms: _240  and  _243
REMARK  110  A    between atoms: _246  and  _248
REMARK  111  A    between atoms: _248  and  _249
REMARK  112  A    between atoms: _248  and  _251
REMARK  113  A    between atoms: _251  and  _252
REMARK  114  A    between atoms: _258  and  _260
REMARK  115  A    between atoms: _260  and  _261
REMARK  116  A    between atoms: _260  and  _263
REMARK  117  A    between atoms: _263  and  _264
REMARK  118  A    between atoms: _264  and  _265
REMARK  119  A    between atoms: _268  and  _270
REMARK  120  A    between atoms: _270  and  _271
REMARK  121  A    between atoms: _270  and  _273
REMARK  122  A    between atoms: _273  and  _274
REMARK  123  A    between atoms: _280  and  _282
REMARK  124  A    between atoms: _282  and  _283
REMARK  125  A    between atoms: _282  and  _285
REMARK  126  A    between atoms: _285  and  _286
REMARK  127  A    between atoms: _289  and  _291
REMARK  128  A    between atoms: _291  and  _292
REMARK  129  A    between atoms: _291  and  _294
REMARK  130  A    between atoms: _294  and  _295
REMARK  131  A    between atoms: _300  and  _302
REMARK  132  A    between atoms: _302  and  _303
REMARK  133  A    between atoms: _302  and  _305
REMARK  134  A    between atoms: _305  and  _306
REMARK  135  A    between atoms: _306  and  _307
REMARK  136  A    between atoms: _312  and  _314
REMARK  137  A    between atoms: _314  and  _315
REMARK  138  A    between atoms: _314  and  _317
REMARK  139  A    between atoms: _317  and  _318
REMARK  140  A    between atoms: _321  and  _323
REMARK  141  A    between atoms: _323  and  _324
REMARK  142  A    between atoms: _323  and  _326
REMARK  143  A    between atoms: _326  and  _327
REMARK  144  A    between atoms: _330  and  _332
REMARK  145  A    between atoms: _332  and  _333
REMARK  146  A    between atoms: _332  and  _335
REMARK  147  A    between atoms: _335  and  _336
REMARK  148  A    between atoms: _336  and  _337
REMARK  149  A    between atoms: _337  and  _338
REMARK  150  A    between atoms: _338  and  _339
REMARK  151  A    between atoms: _343  and  _345
REMARK  152  A    between atoms: _345  and  _346
REMARK  153  A    between atoms: _345  and  _348
REMARK  154  A    between atoms: _348  and  _349
REMARK  155  A    between atoms: _349  and  _350
REMARK  156  A    between atoms: _350  and  _351
REMARK  157  A    between atoms: _351  and  _352
REMARK  158  A    between atoms: _356  and  _358
REMARK  159  A    between atoms: _358  and  _359
REMARK  160  A    between atoms: _358  and  _361
REMARK  161  A    between atoms: _361  and  _362
REMARK  162  A    between atoms: _368  and  _370
REMARK  163  A    between atoms: _370  and  _371
REMARK  164  A    between atoms: _370  and  _373
REMARK  165  A    between atoms: _373  and  _374
REMARK  166  A    between atoms: _377  and  _379
REMARK  167  A    between atoms: _379  and  _380
REMARK  168  A    between atoms: _379  and  _382
REMARK  169  A    between atoms: _382  and  _383
REMARK  170  A    between atoms: _388  and  _390
REMARK  171  A    between atoms: _390  and  _391
REMARK  172  A    between atoms: _390  and  _393
REMARK  173  A    between atoms: _393  and  _394
REMARK  174  A    between atoms: _394  and  _395
REMARK  175  A    between atoms: _395  and  _396
REMARK  176  A    between atoms: _396  and  _397
REMARK  177  A    between atoms: _402  and  _403
REMARK  178  A    between atoms: _408  and  _410
REMARK  179  A    between atoms: _410  and  _411
REMARK  180  A    between atoms: _410  and  _413
REMARK  181  A    between atoms: _413  and  _414
REMARK  182  A    between atoms: _414  and  _415
REMARK  183  A    between atoms: _420  and  _422
REMARK  184  A    between atoms: _422  and  _423
REMARK  185  A    between atoms: _422  and  _425
REMARK  186  A    between atoms: _425  and  _426
REMARK  187  A    between atoms: _431  and  _433
REMARK  188  A    between atoms: _433  and  _434
REMARK  189  A    between atoms: _433  and  _436
REMARK  190  A    between atoms: _436  and  _437
REMARK  191  A    between atoms: _440  and  _442
REMARK  192  A    between atoms: _442  and  _443
REMARK  193  A    between atoms: _442  and  _445
REMARK  194  A    between atoms: _445  and  _446
REMARK  195  A    between atoms: _449  and  _451
REMARK  196  A    between atoms: _451  and  _452
REMARK  197  A    between atoms: _451  and  _454
REMARK  198  A    between atoms: _454  and  _455
REMARK  199  A    between atoms: _458  and  _460
REMARK  200  A    between atoms: _460  and  _461
REMARK  201  A    between atoms: _460  and  _463
REMARK  202  A    between atoms: _463  and  _464
REMARK  203  A    between atoms: _464  and  _465
REMARK  204  A    between atoms: _465  and  _466
REMARK  205  A    between atoms: _466  and  _467
REMARK  206  A    between atoms: _471  and  _473
REMARK  207  A    between atoms: _473  and  _474
REMARK  208  A    between atoms: _473  and  _476
REMARK  209  A    between atoms: _476  and  _477
REMARK  210  A    between atoms: _480  and  _482
REMARK  211  A    between atoms: _482  and  _483
REMARK  212  A    between atoms: _486  and  _488
REMARK  213  A    between atoms: _488  and  _489
REMARK  214  A    between atoms: _488  and  _491
REMARK  215  A    between atoms: _491  and  _492
REMARK  216  A    between atoms: _495  and  _497
REMARK  217  A    between atoms: _497  and  _498
REMARK  218  A    between atoms: _497  and  _500
REMARK  219  A    between atoms: _500  and  _501
REMARK  220  A    between atoms: _507  and  _509
REMARK  221  A    between atoms: _509  and  _510
REMARK  222  A    between atoms: _509  and  _512
REMARK  223  A    between atoms: _512  and  _513
REMARK  224  A    between atoms: _516  and  _518
REMARK  225  A    between atoms: _518  and  _519
REMARK  226  A    between atoms: _518  and  _521
REMARK  227  A    between atoms: _521  and  _522
REMARK                            x       y       z     vdW  Elec       q    Type
REMARK                         _______ _______ _______ _____ _____    ______ ____
ROOT
ATOM      1  O   HOH     1      17.219  28.069  33.507  0.00  0.00    +0.000 OA
ENDROOT
TORSDOF 0
REMARK  Name = ../refined-set-2016/2xnb/2xnb_pocket.pdb
REMARK  227 active torsions:
REMARK  status: ('A' for Active; 'I' for Inactive)
REMARK    1  A    between atoms: _1  and  _3
REMARK    2  A    between atoms: _3  and  _4
REMARK    3  A    between atoms: _3  and  _6
REMARK    4  A    between atoms: _6  and  _7
REMARK    5  A    between atoms: _7  and  _8
REMARK    6  A    between atoms: _11  and  _13
REMARK    7  A    between atoms: _13  and  _14
REMARK    8  A    between atoms: _13  and  _16
REMARK    9  A    between atoms: _16  and  _17
REMARK   10  A    between atoms: _17  and  _18
REMARK   11  A    between atoms: _18  and  _19
REMARK   12  A    between atoms: _19  and  _20
REMARK   13  A    between atoms: _24  and  _26
REMARK   14  A    between atoms: _26  and  _27
REMARK   15  A    between atoms: _26  and  _29
REMARK   16  A    between atoms: _29  and  _30
REMARK   17  A    between atoms: _33  and  _35
REMARK   18  A    between atoms: _35  and  _36
REMARK   19  A    between atoms: _38  and  _40
REMARK   20  A    between atoms: _40  and  _41
REMARK   21  A    between atoms: _40  and  _43
REMARK   22  A    between atoms: _43  and  _44
REMARK   23  A    between atoms: _44  and  _45
REMARK   24  A    between atoms: _48  and  _50
REMARK   25  A    between atoms: _50  and  _51
REMARK   26  A    between atoms: _53  and  _55
REMARK   27  A    between atoms: _55  and  _56
REMARK   28  A    between atoms: _55  and  _58
REMARK   29  A    between atoms: _58  and  _59
REMARK   30  A    between atoms: _62  and  _64
REMARK   31  A    between atoms: _64  and  _65
REMARK   32  A    between atoms: _64  and  _67
REMARK   33  A    between atoms: _67  and  _68
REMARK   34  A    between atoms: _73  and  _74
REMARK   35  A    between atoms: _76  and  _78
REMARK   36  A    between atoms: _78  and  _79
REMARK   37  A    between atoms: _81  and  _83
REMARK   38  A    between atoms: _83  and  _84
REMARK   39  A    between atoms: _83  and  _86
REMARK   40  A    between atoms: _89  and  _91
REMARK   41  A    between atoms: _91  and  _92
REMARK   42  A    between atoms: _91  and  _94
REMARK   43  A    between atoms: _97  and  _99
REMARK   44  A    between atoms: _99  and  _100
REMARK   45  A    between atoms: _99  and  _102
REMARK   46  A    between atoms: _102  and  _103
REMARK   47  A    between atoms: _108  and  _109
REMARK   48  A    between atoms: _111  and  _113
REMARK   49  A    between atoms: _113  and  _114
REMARK   50  A    between atoms: _113  and  _116
REMARK   51  A    between atoms: _116  and  _117
REMARK   52  A    between atoms: _117  and  _118
REMARK   53  A    between atoms: _118  and  _119
REMARK   54  A    between atoms: _119  and  _120
REMARK   55  A    between atoms: _124  and  _126
REMARK   56  A    between atoms: _126  and  _127
REMARK   57  A    between atoms: _126  and  _129
REMARK   58  A    between atoms: _132  and  _134
REMARK   59  A    between atoms: _134  and  _135
REMARK   60  A    between atoms: _134  and  _137
REMARK   61  A    between atoms: _140  and  _142
REMARK   62  A    between atoms: _142  and  _143
REMARK   63  A    between atoms: _146  and  _148
REMARK   64  A    between atoms: _148  and  _149
REMARK   65  A    between atoms: _148  and  _151
REMARK   66  A    between atoms: _151  and  _152
REMARK   67  A    between atoms: _155  and  _157
REMARK   68  A    between atoms: _157  and  _158
REMARK   69  A    between atoms: _157  and  _160
REMARK   70  A    between atoms: _160  and  _161
REMARK   71  A    between atoms: _161  and  _162
REMARK   72  A    between atoms: _162  and  _163
REMARK   73  A    between atoms: _163  and  _164
REMARK   74  A    between atoms: _168  and  _170
REMARK   75  A    between atoms: _170  and  _171
REMARK   76  A    between atoms: _170  and  _173
REMARK   77  A    between atoms: _173  and  _174
REMARK   78  A    between atoms: _174  and  _175
REMARK   79  A    between atoms: _175  and  _176
REMARK   80  A    between atoms: _176  and  _177
REMARK   81  A    between atoms: _181  and  _183
REMARK   82  A    between atoms: _183  and  _184
REMARK   83  A    between atoms: _183  and  _186
REMARK   84  A    between atoms: _186  and  _187
REMARK   85  A    between atoms: _190  and  _192
REMARK   86  A    between atoms: _192  and  _193
REMARK   87  A    between atoms: _192  and  _195
REMARK   88  A    between atoms: _198  and  _200
REMARK   89  A    between atoms: _200  and  _201
REMARK   90  A    between atoms: _200  and  _203
REMARK   91  A    between atoms: _203  and  _204
REMARK   92  A    between atoms: _204  and  _205
REMARK   93  A    between atoms: _205  and  _206
REMARK   94  A    between atoms: _206  and  _207
REMARK   95  A    between atoms: _211  and  _213
REMARK   96  A    between atoms: _213  and  _214
REMARK   97  A    between atoms: _213  and  _216
REMARK   98  A    between atoms: _216  and  _217
REMARK   99  A    between atoms: _220  and  _222
REMARK  100  A    between atoms: _222  and  _223
REMARK  101  A    between atoms: _222  and  _225
REMARK  102  A    between atoms: _225  and  _226
REMARK  103  A    between atoms: _229  and  _231
REMARK  104  A    between atoms: _231  and  _232
REMARK  105  A    between atoms: _231  and  _234
REMARK  106  A    between atoms: _234  and  _235
REMARK  107  A    between atoms: _238  and  _240
REMARK  108  A    between atoms: _240  and  _241
REMARK  109  A    between atoms: _240  and  _243
REMARK  110  A    between atoms: _246  and  _248
REMARK  111  A    between atoms: _248  and  _249
REMARK  112  A    between atoms: _248  and  _251
REMARK  113  A    between atoms: _251  and  _252
REMARK  114  A    between atoms: _258  and  _260
REMARK  115  A    between atoms: _260  and  _261
REMARK  116  A    between atoms: _260  and  _263
REMARK  117  A    between atoms: _263  and  _264
REMARK  118  A    between atoms: _264  and  _265
REMARK  119  A    between atoms: _268  and  _270
REMARK  120  A    between atoms: _270  and  _271
REMARK  121  A    between atoms: _270  and  _273
REMARK  122  A    between atoms: _273  and  _274
REMARK  123  A    between atoms: _280  and  _282
REMARK  124  A    between atoms: _282  and  _283
REMARK  125  A    between atoms: _282  and  _285
REMARK  126  A    between atoms: _285  and  _286
REMARK  127  A    between atoms: _289  and  _291
REMARK  128  A    between atoms: _291  and  _292
REMARK  129  A    between atoms: _291  and  _294
REMARK  130  A    between atoms: _294  and  _295
REMARK  131  A    between atoms: _300  and  _302
REMARK  132  A    between atoms: _302  and  _303
REMARK  133  A    between atoms: _302  and  _305
REMARK  134  A    between atoms: _305  and  _306
REMARK  135  A    between atoms: _306  and  _307
REMARK  136  A    between atoms: _312  and  _314
REMARK  137  A    between atoms: _314  and  _315
REMARK  138  A    between atoms: _314  and  _317
REMARK  139  A    between atoms: _317  and  _318
REMARK  140  A    between atoms: _321  and  _323
REMARK  141  A    between atoms: _323  and  _324
REMARK  142  A    between atoms: _323  and  _326
REMARK  143  A    between atoms: _326  and  _327
REMARK  144  A    between atoms: _330  and  _332
REMARK  145  A    between atoms: _332  and  _333
REMARK  146  A    between atoms: _332  and  _335
REMARK  147  A    between atoms: _335  and  _336
REMARK  148  A    between atoms: _336  and  _337
REMARK  149  A    between atoms: _337  and  _338
REMARK  150  A    between atoms: _338  and  _339
REMARK  151  A    between atoms: _343  and  _345
REMARK  152  A    between atoms: _345  and  _346
REMARK  153  A    between atoms: _345  and  _348
REMARK  154  A    between atoms: _348  and  _349
REMARK  155  A    between atoms: _349  and  _350
REMARK  156  A    between atoms: _350  and  _351
REMARK  157  A    between atoms: _351  and  _352
REMARK  158  A    between atoms: _356  and  _358
REMARK  159  A    between atoms: _358  and  _359
REMARK  160  A    between atoms: _358  and  _361
REMARK  161  A    between atoms: _361  and  _362
REMARK  162  A    between atoms: _368  and  _370
REMARK  163  A    between atoms: _370  and  _371
REMARK  164  A    between atoms: _370  and  _373
REMARK  165  A    between atoms: _373  and  _374
REMARK  166  A    between atoms: _377  and  _379
REMARK  167  A    between atoms: _379  and  _380
REMARK  168  A    between atoms: _379  and  _382
REMARK  169  A    between atoms: _382  and  _383
REMARK  170  A    between atoms: _388  and  _390
REMARK  171  A    between atoms: _390  and  _391
REMARK  172  A    between atoms: _390  and  _393
REMARK  173  A    between atoms: _393  and  _394
REMARK  174  A    between atoms: _394  and  _395
REMARK  175  A    between atoms: _395  and  _396
REMARK  176  A    between atoms: _396  and  _397
REMARK  177  A    between atoms: _402  and  _403
REMARK  178  A    between atoms: _408  and  _410
REMARK  179  A    between atoms: _410  and  _411
REMARK  180  A    between atoms: _410  and  _413
REMARK  181  A    between atoms: _413  and  _414
REMARK  182  A    between atoms: _414  and  _415
REMARK  183  A    between atoms: _420  and  _422
REMARK  184  A    between atoms: _422  and  _423
REMARK  185  A    between atoms: _422  and  _425
REMARK  186  A    between atoms: _425  and  _426
REMARK  187  A    between atoms: _431  and  _433
REMARK  188  A    between atoms: _433  and  _434
REMARK  189  A    between atoms: _433  and  _436
REMARK  190  A    between atoms: _436  and  _437
REMARK  191  A    between atoms: _440  and  _442
REMARK  192  A    between atoms: _442  and  _443
REMARK  193  A    between atoms: _442  and  _445
REMARK  194  A    between atoms: _445  and  _446
REMARK  195  A    between atoms: _449  and  _451
REMARK  196  A    between atoms: _451  and  _452
REMARK  197  A    between atoms: _451  and  _454
REMARK  198  A    between atoms: _454  and  _455
REMARK  199  A    between atoms: _458  and  _460
REMARK  200  A    between atoms: _460  and  _461
REMARK  201  A    between atoms: _460  and  _463
REMARK  202  A    between atoms: _463  and  _464
REMARK  203  A    between atoms: _464  and  _465
REMARK  204  A    between atoms: _465  and  _466
REMARK  205  A    between atoms: _466  and  _467
REMARK  206  A    between atoms: _471  and  _473
REMARK  207  A    between atoms: _473  and  _474
REMARK  208  A    between atoms: _473  and  _476
REMARK  209  A    between atoms: _476  and  _477
REMARK  210  A    between atoms: _480  and  _482
REMARK  211  A    between atoms: _482  and  _483
REMARK  212  A    between atoms: _486  and  _488
REMARK  213  A    between atoms: _488  and  _489
REMARK  214  A    between atoms: _488  and  _491
REMARK  215  A    between atoms: _491  and  _492
REMARK  216  A    between atoms: _495  and  _497
REMARK  217  A    between atoms: _497  and  _498
REMARK  218  A    between atoms: _497  and  _500
REMARK  219  A    between atoms: _500  and  _501
REMARK  220  A    between atoms: _507  and  _509
REMARK  221  A    between atoms: _509  and  _510
REMARK  222  A    between atoms: _509  and  _512
REMARK  223  A    between atoms: _512  and  _513
REMARK  224  A    between atoms: _516  and  _518
REMARK  225  A    between atoms: _518  and  _519
REMARK  226  A    between atoms: _518  and  _521
REMARK  227  A    between atoms: _521  and  _522
REMARK                            x       y       z     vdW  Elec       q    Type
REMARK                         _______ _______ _______ _____ _____    ______ ____
ROOT
ATOM      1  O   HOH     1      18.212  25.971  30.693  0.00  0.00    +0.000 OA
ENDROOT
TORSDOF 0
REMARK  Name = ../refined-set-2016/2xnb/2xnb_pocket.pdb
REMARK  227 active torsions:
REMARK  status: ('A' for Active; 'I' for Inactive)
REMARK    1  A    between atoms: _1  and  _3
REMARK    2  A    between atoms: _3  and  _4
REMARK    3  A    between atoms: _3  and  _6
REMARK    4  A    between atoms: _6  and  _7
REMARK    5  A    between atoms: _7  and  _8
REMARK    6  A    between atoms: _11  and  _13
REMARK    7  A    between atoms: _13  and  _14
REMARK    8  A    between atoms: _13  and  _16
REMARK    9  A    between atoms: _16  and  _17
REMARK   10  A    between atoms: _17  and  _18
REMARK   11  A    between atoms: _18  and  _19
REMARK   12  A    between atoms: _19  and  _20
REMARK   13  A    between atoms: _24  and  _26
REMARK   14  A    between atoms: _26  and  _27
REMARK   15  A    between atoms: _26  and  _29
REMARK   16  A    between atoms: _29  and  _30
REMARK   17  A    between atoms: _33  and  _35
REMARK   18  A    between atoms: _35  and  _36
REMARK   19  A    between atoms: _38  and  _40
REMARK   20  A    between atoms: _40  and  _41
REMARK   21  A    between atoms: _40  and  _43
REMARK   22  A    between atoms: _43  and  _44
REMARK   23  A    between atoms: _44  and  _45
REMARK   24  A    between atoms: _48  and  _50
REMARK   25  A    between atoms: _50  and  _51
REMARK   26  A    between atoms: _53  and  _55
REMARK   27  A    between atoms: _55  and  _56
REMARK   28  A    between atoms: _55  and  _58
REMARK   29  A    between atoms: _58  and  _59
REMARK   30  A    between atoms: _62  and  _64
REMARK   31  A    between atoms: _64  and  _65
REMARK   32  A    between atoms: _64  and  _67
REMARK   33  A    between atoms: _67  and  _68
REMARK   34  A    between atoms: _73  and  _74
REMARK   35  A    between atoms: _76  and  _78
REMARK   36  A    between atoms: _78  and  _79
REMARK   37  A    between atoms: _81  and  _83
REMARK   38  A    between atoms: _83  and  _84
REMARK   39  A    between atoms: _83  and  _86
REMARK   40  A    between atoms: _89  and  _91
REMARK   41  A    between atoms: _91  and  _92
REMARK   42  A    between atoms: _91  and  _94
REMARK   43  A    between atoms: _97  and  _99
REMARK   44  A    between atoms: _99  and  _100
REMARK   45  A    between atoms: _99  and  _102
REMARK   46  A    between atoms: _102  and  _103
REMARK   47  A    between atoms: _108  and  _109
REMARK   48  A    between atoms: _111  and  _113
REMARK   49  A    between atoms: _113  and  _114
REMARK   50  A    between atoms: _113  and  _116
REMARK   51  A    between atoms: _116  and  _117
REMARK   52  A    between atoms: _117  and  _118
REMARK   53  A    between atoms: _118  and  _119
REMARK   54  A    between atoms: _119  and  _120
REMARK   55  A    between atoms: _124  and  _126
REMARK   56  A    between atoms: _126  and  _127
REMARK   57  A    between atoms: _126  and  _129
REMARK   58  A    between atoms: _132  and  _134
REMARK   59  A    between atoms: _134  and  _135
REMARK   60  A    between atoms: _134  and  _137
REMARK   61  A    between atoms: _140  and  _142
REMARK   62  A    between atoms: _142  and  _143
REMARK   63  A    between atoms: _146  and  _148
REMARK   64  A    between atoms: _148  and  _149
REMARK   65  A    between atoms: _148  and  _151
REMARK   66  A    between atoms: _151  and  _152
REMARK   67  A    between atoms: _155  and  _157
REMARK   68  A    between atoms: _157  and  _158
REMARK   69  A    between atoms: _157  and  _160
REMARK   70  A    between atoms: _160  and  _161
REMARK   71  A    between atoms: _161  and  _162
REMARK   72  A    between atoms: _162  and  _163
REMARK   73  A    between atoms: _163  and  _164
REMARK   74  A    between atoms: _168  and  _170
REMARK   75  A    between atoms: _170  and  _171
REMARK   76  A    between atoms: _170  and  _173
REMARK   77  A    between atoms: _173  and  _174
REMARK   78  A    between atoms: _174  and  _175
REMARK   79  A    between atoms: _175  and  _176
REMARK   80  A    between atoms: _176  and  _177
REMARK   81  A    between atoms: _181  and  _183
REMARK   82  A    between atoms: _183  and  _184
REMARK   83  A    between atoms: _183  and  _186
REMARK   84  A    between atoms: _186  and  _187
REMARK   85  A    between atoms: _190  and  _192
REMARK   86  A    between atoms: _192  and  _193
REMARK   87  A    between atoms: _192  and  _195
REMARK   88  A    between atoms: _198  and  _200
REMARK   89  A    between atoms: _200  and  _201
REMARK   90  A    between atoms: _200  and  _203
REMARK   91  A    between atoms: _203  and  _204
REMARK   92  A    between atoms: _204  and  _205
REMARK   93  A    between atoms: _205  and  _206
REMARK   94  A    between atoms: _206  and  _207
REMARK   95  A    between atoms: _211  and  _213
REMARK   96  A    between atoms: _213  and  _214
REMARK   97  A    between atoms: _213  and  _216
REMARK   98  A    between atoms: _216  and  _217
REMARK   99  A    between atoms: _220  and  _222
REMARK  100  A    between atoms: _222  and  _223
REMARK  101  A    between atoms: _222  and  _225
REMARK  102  A    between atoms: _225  and  _226
REMARK  103  A    between atoms: _229  and  _231
REMARK  104  A    between atoms: _231  and  _232
REMARK  105  A    between atoms: _231  and  _234
REMARK  106  A    between atoms: _234  and  _235
REMARK  107  A    between atoms: _238  and  _240
REMARK  108  A    between atoms: _240  and  _241
REMARK  109  A    between atoms: _240  and  _243
REMARK  110  A    between atoms: _246  and  _248
REMARK  111  A    between atoms: _248  and  _249
REMARK  112  A    between atoms: _248  and  _251
REMARK  113  A    between atoms: _251  and  _252
REMARK  114  A    between atoms: _258  and  _260
REMARK  115  A    between atoms: _260  and  _261
REMARK  116  A    between atoms: _260  and  _263
REMARK  117  A    between atoms: _263  and  _264
REMARK  118  A    between atoms: _264  and  _265
REMARK  119  A    between atoms: _268  and  _270
REMARK  120  A    between atoms: _270  and  _271
REMARK  121  A    between atoms: _270  and  _273
REMARK  122  A    between atoms: _273  and  _274
REMARK  123  A    between atoms: _280  and  _282
REMARK  124  A    between atoms: _282  and  _283
REMARK  125  A    between atoms: _282  and  _285
REMARK  126  A    between atoms: _285  and  _286
REMARK  127  A    between atoms: _289  and  _291
REMARK  128  A    between atoms: _291  and  _292
REMARK  129  A    between atoms: _291  and  _294
REMARK  130  A    between atoms: _294  and  _295
REMARK  131  A    between atoms: _300  and  _302
REMARK  132  A    between atoms: _302  and  _303
REMARK  133  A    between atoms: _302  and  _305
REMARK  134  A    between atoms: _305  and  _306
REMARK  135  A    between atoms: _306  and  _307
REMARK  136  A    between atoms: _312  and  _314
REMARK  137  A    between atoms: _314  and  _315
REMARK  138  A    between atoms: _314  and  _317
REMARK  139  A    between atoms: _317  and  _318
REMARK  140  A    between atoms: _321  and  _323
REMARK  141  A    between atoms: _323  and  _324
REMARK  142  A    between atoms: _323  and  _326
REMARK  143  A    between atoms: _326  and  _327
REMARK  144  A    between atoms: _330  and  _332
REMARK  145  A    between atoms: _332  and  _333
REMARK  146  A    between atoms: _332  and  _335
REMARK  147  A    between atoms: _335  and  _336
REMARK  148  A    between atoms: _336  and  _337
REMARK  149  A    between atoms: _337  and  _338
REMARK  150  A    between atoms: _338  and  _339
REMARK  151  A    between atoms: _343  and  _345
REMARK  152  A    between atoms: _345  and  _346
REMARK  153  A    between atoms: _345  and  _348
REMARK  154  A    between atoms: _348  and  _349
REMARK  155  A    between atoms: _349  and  _350
REMARK  156  A    between atoms: _350  and  _351
REMARK  157  A    between atoms: _351  and  _352
REMARK  158  A    between atoms: _356  and  _358
REMARK  159  A    between atoms: _358  and  _359
REMARK  160  A    between atoms: _358  and  _361
REMARK  161  A    between atoms: _361  and  _362
REMARK  162  A    between atoms: _368  and  _370
REMARK  163  A    between atoms: _370  and  _371
REMARK  164  A    between atoms: _370  and  _373
REMARK  165  A    between atoms: _373  and  _374
REMARK  166  A    between atoms: _377  and  _379
REMARK  167  A    between atoms: _379  and  _380
REMARK  168  A    between atoms: _379  and  _382
REMARK  169  A    between atoms: _382  and  _383
REMARK  170  A    between atoms: _388  and  _390
REMARK  171  A    between atoms: _390  and  _391
REMARK  172  A    between atoms: _390  and  _393
REMARK  173  A    between atoms: _393  and  _394
REMARK  174  A    between atoms: _394  and  _395
REMARK  175  A    between atoms: _395  and  _396
REMARK  176  A    between atoms: _396  and  _397
REMARK  177  A    between atoms: _402  and  _403
REMARK  178  A    between atoms: _408  and  _410
REMARK  179  A    between atoms: _410  and  _411
REMARK  180  A    between atoms: _410  and  _413
REMARK  181  A    between atoms: _413  and  _414
REMARK  182  A    between atoms: _414  and  _415
REMARK  183  A    between atoms: _420  and  _422
REMARK  184  A    between atoms: _422  and  _423
REMARK  185  A    between atoms: _422  and  _425
REMARK  186  A    between atoms: _425  and  _426
REMARK  187  A    between atoms: _431  and  _433
REMARK  188  A    between atoms: _433  and  _434
REMARK  189  A    between atoms: _433  and  _436
REMARK  190  A    between atoms: _436  and  _437
REMARK  191  A    between atoms: _440  and  _442
REMARK  192  A    between atoms: _442  and  _443
REMARK  193  A    between atoms: _442  and  _445
REMARK  194  A    between atoms: _445  and  _446
REMARK  195  A    between atoms: _449  and  _451
REMARK  196  A    between atoms: _451  and  _452
REMARK  197  A    between atoms: _451  and  _454
REMARK  198  A    between atoms: _454  and  _455
REMARK  199  A    between atoms: _458  and  _460
REMARK  200  A    between atoms: _460  and  _461
REMARK  201  A    between atoms: _460  and  _463
REMARK  202  A    between atoms: _463  and  _464
REMARK  203  A    between atoms: _464  and  _465
REMARK  204  A    between atoms: _465  and  _466
REMARK  205  A    between atoms: _466  and  _467
REMARK  206  A    between atoms: _471  and  _473
REMARK  207  A    between atoms: _473  and  _474
REMARK  208  A    between atoms: _473  and  _476
REMARK  209  A    between atoms: _476  and  _477
REMARK  210  A    between atoms: _480  and  _482
REMARK  211  A    between atoms: _482  and  _483
REMARK  212  A    between atoms: _486  and  _488
REMARK  213  A    between atoms: _488  and  _489
REMARK  214  A    between atoms: _488  and  _491
REMARK  215  A    between atoms: _491  and  _492
REMARK  216  A    between atoms: _495  and  _497
REMARK  217  A    between atoms: _497  and  _498
REMARK  218  A    between atoms: _497  and  _500
REMARK  219  A    between atoms: _500  and  _501
REMARK  220  A    between atoms: _507  and  _509
REMARK  221  A    between atoms: _509  and  _510
REMARK  222  A    between atoms: _509  and  _512
REMARK  223  A    between atoms: _512  and  _513
REMARK  224  A    between atoms: _516  and  _518
REMARK  225  A    between atoms: _518  and  _519
REMARK  226  A    between atoms: _518  and  _521
REMARK  227  A    between atoms: _521  and  _522
REMARK                            x       y       z     vdW  Elec       q    Type
REMARK                         _______ _______ _______ _____ _____    ______ ____
ROOT
ATOM      1  O   HOH     1      21.551  22.277  23.705  0.00  0.00    +0.000 OA
ENDROOT
TORSDOF 0
REMARK  Name = ../refined-set-2016/2xnb/2xnb_pocket.pdb
REMARK  227 active torsions:
REMARK  status: ('A' for Active; 'I' for Inactive)
REMARK    1  A    between atoms: _1  and  _3
REMARK    2  A    between atoms: _3  and  _4
REMARK    3  A    between atoms: _3  and  _6
REMARK    4  A    between atoms: _6  and  _7
REMARK    5  A    between atoms: _7  and  _8
REMARK    6  A    between atoms: _11  and  _13
REMARK    7  A    between atoms: _13  and  _14
REMARK    8  A    between atoms: _13  and  _16
REMARK    9  A    between atoms: _16  and  _17
REMARK   10  A    between atoms: _17  and  _18
REMARK   11  A    between atoms: _18  and  _19
REMARK   12  A    between atoms: _19  and  _20
REMARK   13  A    between atoms: _24  and  _26
REMARK   14  A    between atoms: _26  and  _27
REMARK   15  A    between atoms: _26  and  _29
REMARK   16  A    between atoms: _29  and  _30
REMARK   17  A    between atoms: _33  and  _35
REMARK   18  A    between atoms: _35  and  _36
REMARK   19  A    between atoms: _38  and  _40
REMARK   20  A    between atoms: _40  and  _41
REMARK   21  A    between atoms: _40  and  _43
REMARK   22  A    between atoms: _43  and  _44
REMARK   23  A    between atoms: _44  and  _45
REMARK   24  A    between atoms: _48  and  _50
REMARK   25  A    between atoms: _50  and  _51
REMARK   26  A    between atoms: _53  and  _55
REMARK   27  A    between atoms: _55  and  _56
REMARK   28  A    between atoms: _55  and  _58
REMARK   29  A    between atoms: _58  and  _59
REMARK   30  A    between atoms: _62  and  _64
REMARK   31  A    between atoms: _64  and  _65
REMARK   32  A    between atoms: _64  and  _67
REMARK   33  A    between atoms: _67  and  _68
REMARK   34  A    between atoms: _73  and  _74
REMARK   35  A    between atoms: _76  and  _78
REMARK   36  A    between atoms: _78  and  _79
REMARK   37  A    between atoms: _81  and  _83
REMARK   38  A    between atoms: _83  and  _84
REMARK   39  A    between atoms: _83  and  _86
REMARK   40  A    between atoms: _89  and  _91
REMARK   41  A    between atoms: _91  and  _92
REMARK   42  A    between atoms: _91  and  _94
REMARK   43  A    between atoms: _97  and  _99
REMARK   44  A    between atoms: _99  and  _100
REMARK   45  A    between atoms: _99  and  _102
REMARK   46  A    between atoms: _102  and  _103
REMARK   47  A    between atoms: _108  and  _109
REMARK   48  A    between atoms: _111  and  _113
REMARK   49  A    between atoms: _113  and  _114
REMARK   50  A    between atoms: _113  and  _116
REMARK   51  A    between atoms: _116  and  _117
REMARK   52  A    between atoms: _117  and  _118
REMARK   53  A    between atoms: _118  and  _119
REMARK   54  A    between atoms: _119  and  _120
REMARK   55  A    between atoms: _124  and  _126
REMARK   56  A    between atoms: _126  and  _127
REMARK   57  A    between atoms: _126  and  _129
REMARK   58  A    between atoms: _132  and  _134
REMARK   59  A    between atoms: _134  and  _135
REMARK   60  A    between atoms: _134  and  _137
REMARK   61  A    between atoms: _140  and  _142
REMARK   62  A    between atoms: _142  and  _143
REMARK   63  A    between atoms: _146  and  _148
REMARK   64  A    between atoms: _148  and  _149
REMARK   65  A    between atoms: _148  and  _151
REMARK   66  A    between atoms: _151  and  _152
REMARK   67  A    between atoms: _155  and  _157
REMARK   68  A    between atoms: _157  and  _158
REMARK   69  A    between atoms: _157  and  _160
REMARK   70  A    between atoms: _160  and  _161
REMARK   71  A    between atoms: _161  and  _162
REMARK   72  A    between atoms: _162  and  _163
REMARK   73  A    between atoms: _163  and  _164
REMARK   74  A    between atoms: _168  and  _170
REMARK   75  A    between atoms: _170  and  _171
REMARK   76  A    between atoms: _170  and  _173
REMARK   77  A    between atoms: _173  and  _174
REMARK   78  A    between atoms: _174  and  _175
REMARK   79  A    between atoms: _175  and  _176
REMARK   80  A    between atoms: _176  and  _177
REMARK   81  A    between atoms: _181  and  _183
REMARK   82  A    between atoms: _183  and  _184
REMARK   83  A    between atoms: _183  and  _186
REMARK   84  A    between atoms: _186  and  _187
REMARK   85  A    between atoms: _190  and  _192
REMARK   86  A    between atoms: _192  and  _193
REMARK   87  A    between atoms: _192  and  _195
REMARK   88  A    between atoms: _198  and  _200
REMARK   89  A    between atoms: _200  and  _201
REMARK   90  A    between atoms: _200  and  _203
REMARK   91  A    between atoms: _203  and  _204
REMARK   92  A    between atoms: _204  and  _205
REMARK   93  A    between atoms: _205  and  _206
REMARK   94  A    between atoms: _206  and  _207
REMARK   95  A    between atoms: _211  and  _213
REMARK   96  A    between atoms: _213  and  _214
REMARK   97  A    between atoms: _213  and  _216
REMARK   98  A    between atoms: _216  and  _217
REMARK   99  A    between atoms: _220  and  _222
REMARK  100  A    between atoms: _222  and  _223
REMARK  101  A    between atoms: _222  and  _225
REMARK  102  A    between atoms: _225  and  _226
REMARK  103  A    between atoms: _229  and  _231
REMARK  104  A    between atoms: _231  and  _232
REMARK  105  A    between atoms: _231  and  _234
REMARK  106  A    between atoms: _234  and  _235
REMARK  107  A    between atoms: _238  and  _240
REMARK  108  A    between atoms: _240  and  _241
REMARK  109  A    between atoms: _240  and  _243
REMARK  110  A    between atoms: _246  and  _248
REMARK  111  A    between atoms: _248  and  _249
REMARK  112  A    between atoms: _248  and  _251
REMARK  113  A    between atoms: _251  and  _252
REMARK  114  A    between atoms: _258  and  _260
REMARK  115  A    between atoms: _260  and  _261
REMARK  116  A    between atoms: _260  and  _263
REMARK  117  A    between atoms: _263  and  _264
REMARK  118  A    between atoms: _264  and  _265
REMARK  119  A    between atoms: _268  and  _270
REMARK  120  A    between atoms: _270  and  _271
REMARK  121  A    between atoms: _270  and  _273
REMARK  122  A    between atoms: _273  and  _274
REMARK  123  A    between atoms: _280  and  _282
REMARK  124  A    between atoms: _282  and  _283
REMARK  125  A    between atoms: _282  and  _285
REMARK  126  A    between atoms: _285  and  _286
REMARK  127  A    between atoms: _289  and  _291
REMARK  128  A    between atoms: _291  and  _292
REMARK  129  A    between atoms: _291  and  _294
REMARK  130  A    between atoms: _294  and  _295
REMARK  131  A    between atoms: _300  and  _302
REMARK  132  A    between atoms: _302  and  _303
REMARK  133  A    between atoms: _302  and  _305
REMARK  134  A    between atoms: _305  and  _306
REMARK  135  A    between atoms: _306  and  _307
REMARK  136  A    between atoms: _312  and  _314
REMARK  137  A    between atoms: _314  and  _315
REMARK  138  A    between atoms: _314  and  _317
REMARK  139  A    between atoms: _317  and  _318
REMARK  140  A    between atoms: _321  and  _323
REMARK  141  A    between atoms: _323  and  _324
REMARK  142  A    between atoms: _323  and  _326
REMARK  143  A    between atoms: _326  and  _327
REMARK  144  A    between atoms: _330  and  _332
REMARK  145  A    between atoms: _332  and  _333
REMARK  146  A    between atoms: _332  and  _335
REMARK  147  A    between atoms: _335  and  _336
REMARK  148  A    between atoms: _336  and  _337
REMARK  149  A    between atoms: _337  and  _338
REMARK  150  A    between atoms: _338  and  _339
REMARK  151  A    between atoms: _343  and  _345
REMARK  152  A    between atoms: _345  and  _346
REMARK  153  A    between atoms: _345  and  _348
REMARK  154  A    between atoms: _348  and  _349
REMARK  155  A    between atoms: _349  and  _350
REMARK  156  A    between atoms: _350  and  _351
REMARK  157  A    between atoms: _351  and  _352
REMARK  158  A    between atoms: _356  and  _358
REMARK  159  A    between atoms: _358  and  _359
REMARK  160  A    between atoms: _358  and  _361
REMARK  161  A    between atoms: _361  and  _362
REMARK  162  A    between atoms: _368  and  _370
REMARK  163  A    between atoms: _370  and  _371
REMARK  164  A    between atoms: _370  and  _373
REMARK  165  A    between atoms: _373  and  _374
REMARK  166  A    between atoms: _377  and  _379
REMARK  167  A    between atoms: _379  and  _380
REMARK  168  A    between atoms: _379  and  _382
REMARK  169  A    between atoms: _382  and  _383
REMARK  170  A    between atoms: _388  and  _390
REMARK  171  A    between atoms: _390  and  _391
REMARK  172  A    between atoms: _390  and  _393
REMARK  173  A    between atoms: _393  and  _394
REMARK  174  A    between atoms: _394  and  _395
REMARK  175  A    between atoms: _395  and  _396
REMARK  176  A    between atoms: _396  and  _397
REMARK  177  A    between atoms: _402  and  _403
REMARK  178  A    between atoms: _408  and  _410
REMARK  179  A    between atoms: _410  and  _411
REMARK  180  A    between atoms: _410  and  _413
REMARK  181  A    between atoms: _413  and  _414
REMARK  182  A    between atoms: _414  and  _415
REMARK  183  A    between atoms: _420  and  _422
REMARK  184  A    between atoms: _422  and  _423
REMARK  185  A    between atoms: _422  and  _425
REMARK  186  A    between atoms: _425  and  _426
REMARK  187  A    between atoms: _431  and  _433
REMARK  188  A    between atoms: _433  and  _434
REMARK  189  A    between atoms: _433  and  _436
REMARK  190  A    between atoms: _436  and  _437
REMARK  191  A    between atoms: _440  and  _442
REMARK  192  A    between atoms: _442  and  _443
REMARK  193  A    between atoms: _442  and  _445
REMARK  194  A    between atoms: _445  and  _446
REMARK  195  A    between atoms: _449  and  _451
REMARK  196  A    between atoms: _451  and  _452
REMARK  197  A    between atoms: _451  and  _454
REMARK  198  A    between atoms: _454  and  _455
REMARK  199  A    between atoms: _458  and  _460
REMARK  200  A    between atoms: _460  and  _461
REMARK  201  A    between atoms: _460  and  _463
REMARK  202  A    between atoms: _463  and  _464
REMARK  203  A    between atoms: _464  and  _465
REMARK  204  A    between atoms: _465  and  _466
REMARK  205  A    between atoms: _466  and  _467
REMARK  206  A    between atoms: _471  and  _473
REMARK  207  A    between atoms: _473  and  _474
REMARK  208  A    between atoms: _473  and  _476
REMARK  209  A    between atoms: _476  and  _477
REMARK  210  A    between atoms: _480  and  _482
REMARK  211  A    between atoms: _482  and  _483
REMARK  212  A    between atoms: _486  and  _488
REMARK  213  A    between atoms: _488  and  _489
REMARK  214  A    between atoms: _488  and  _491
REMARK  215  A    between atoms: _491  and  _492
REMARK  216  A    between atoms: _495  and  _497
REMARK  217  A    between atoms: _497  and  _498
REMARK  218  A    between atoms: _497  and  _500
REMARK  219  A    between atoms: _500  and  _501
REMARK  220  A    between atoms: _507  and  _509
REMARK  221  A    between atoms: _509  and  _510
REMARK  222  A    between atoms: _509  and  _512
REMARK  223  A    between atoms: _512  and  _513
REMARK  224  A    between atoms: _516  and  _518
REMARK  225  A    between atoms: _518  and  _519
REMARK  226  A    between atoms: _518  and  _521
REMARK  227  A    between atoms: _521  and  _522
REMARK                            x       y       z     vdW  Elec       q    Type
REMARK                         _______ _______ _______ _____ _____    ______ ____
ROOT
ATOM      1  O   HOH     1      18.132  20.865  25.173  0.00  0.00    +0.000 OA
ENDROOT
TORSDOF 0
REMARK  Name = ../refined-set-2016/2xnb/2xnb_pocket.pdb
REMARK  227 active torsions:
REMARK  status: ('A' for Active; 'I' for Inactive)
REMARK    1  A    between atoms: _1  and  _3
REMARK    2  A    between atoms: _3  and  _4
REMARK    3  A    between atoms: _3  and  _6
REMARK    4  A    between atoms: _6  and  _7
REMARK    5  A    between atoms: _7  and  _8
REMARK    6  A    between atoms: _11  and  _13
REMARK    7  A    between atoms: _13  and  _14
REMARK    8  A    between atoms: _13  and  _16
REMARK    9  A    between atoms: _16  and  _17
REMARK   10  A    between atoms: _17  and  _18
REMARK   11  A    between atoms: _18  and  _19
REMARK   12  A    between atoms: _19  and  _20
REMARK   13  A    between atoms: _24  and  _26
REMARK   14  A    between atoms: _26  and  _27
REMARK   15  A    between atoms: _26  and  _29
REMARK   16  A    between atoms: _29  and  _30
REMARK   17  A    between atoms: _33  and  _35
REMARK   18  A    between atoms: _35  and  _36
REMARK   19  A    between atoms: _38  and  _40
REMARK   20  A    between atoms: _40  and  _41
REMARK   21  A    between atoms: _40  and  _43
REMARK   22  A    between atoms: _43  and  _44
REMARK   23  A    between atoms: _44  and  _45
REMARK   24  A    between atoms: _48  and  _50
REMARK   25  A    between atoms: _50  and  _51
REMARK   26  A    between atoms: _53  and  _55
REMARK   27  A    between atoms: _55  and  _56
REMARK   28  A    between atoms: _55  and  _58
REMARK   29  A    between atoms: _58  and  _59
REMARK   30  A    between atoms: _62  and  _64
REMARK   31  A    between atoms: _64  and  _65
REMARK   32  A    between atoms: _64  and  _67
REMARK   33  A    between atoms: _67  and  _68
REMARK   34  A    between atoms: _73  and  _74
REMARK   35  A    between atoms: _76  and  _78
REMARK   36  A    between atoms: _78  and  _79
REMARK   37  A    between atoms: _81  and  _83
REMARK   38  A    between atoms: _83  and  _84
REMARK   39  A    between atoms: _83  and  _86
REMARK   40  A    between atoms: _89  and  _91
REMARK   41  A    between atoms: _91  and  _92
REMARK   42  A    between atoms: _91  and  _94
REMARK   43  A    between atoms: _97  and  _99
REMARK   44  A    between atoms: _99  and  _100
REMARK   45  A    between atoms: _99  and  _102
REMARK   46  A    between atoms: _102  and  _103
REMARK   47  A    between atoms: _108  and  _109
REMARK   48  A    between atoms: _111  and  _113
REMARK   49  A    between atoms: _113  and  _114
REMARK   50  A    between atoms: _113  and  _116
REMARK   51  A    between atoms: _116  and  _117
REMARK   52  A    between atoms: _117  and  _118
REMARK   53  A    between atoms: _118  and  _119
REMARK   54  A    between atoms: _119  and  _120
REMARK   55  A    between atoms: _124  and  _126
REMARK   56  A    between atoms: _126  and  _127
REMARK   57  A    between atoms: _126  and  _129
REMARK   58  A    between atoms: _132  and  _134
REMARK   59  A    between atoms: _134  and  _135
REMARK   60  A    between atoms: _134  and  _137
REMARK   61  A    between atoms: _140  and  _142
REMARK   62  A    between atoms: _142  and  _143
REMARK   63  A    between atoms: _146  and  _148
REMARK   64  A    between atoms: _148  and  _149
REMARK   65  A    between atoms: _148  and  _151
REMARK   66  A    between atoms: _151  and  _152
REMARK   67  A    between atoms: _155  and  _157
REMARK   68  A    between atoms: _157  and  _158
REMARK   69  A    between atoms: _157  and  _160
REMARK   70  A    between atoms: _160  and  _161
REMARK   71  A    between atoms: _161  and  _162
REMARK   72  A    between atoms: _162  and  _163
REMARK   73  A    between atoms: _163  and  _164
REMARK   74  A    between atoms: _168  and  _170
REMARK   75  A    between atoms: _170  and  _171
REMARK   76  A    between atoms: _170  and  _173
REMARK   77  A    between atoms: _173  and  _174
REMARK   78  A    between atoms: _174  and  _175
REMARK   79  A    between atoms: _175  and  _176
REMARK   80  A    between atoms: _176  and  _177
REMARK   81  A    between atoms: _181  and  _183
REMARK   82  A    between atoms: _183  and  _184
REMARK   83  A    between atoms: _183  and  _186
REMARK   84  A    between atoms: _186  and  _187
REMARK   85  A    between atoms: _190  and  _192
REMARK   86  A    between atoms: _192  and  _193
REMARK   87  A    between atoms: _192  and  _195
REMARK   88  A    between atoms: _198  and  _200
REMARK   89  A    between atoms: _200  and  _201
REMARK   90  A    between atoms: _200  and  _203
REMARK   91  A    between atoms: _203  and  _204
REMARK   92  A    between atoms: _204  and  _205
REMARK   93  A    between atoms: _205  and  _206
REMARK   94  A    between atoms: _206  and  _207
REMARK   95  A    between atoms: _211  and  _213
REMARK   96  A    between atoms: _213  and  _214
REMARK   97  A    between atoms: _213  and  _216
REMARK   98  A    between atoms: _216  and  _217
REMARK   99  A    between atoms: _220  and  _222
REMARK  100  A    between atoms: _222  and  _223
REMARK  101  A    between atoms: _222  and  _225
REMARK  102  A    between atoms: _225  and  _226
REMARK  103  A    between atoms: _229  and  _231
REMARK  104  A    between atoms: _231  and  _232
REMARK  105  A    between atoms: _231  and  _234
REMARK  106  A    between atoms: _234  and  _235
REMARK  107  A    between atoms: _238  and  _240
REMARK  108  A    between atoms: _240  and  _241
REMARK  109  A    between atoms: _240  and  _243
REMARK  110  A    between atoms: _246  and  _248
REMARK  111  A    between atoms: _248  and  _249
REMARK  112  A    between atoms: _248  and  _251
REMARK  113  A    between atoms: _251  and  _252
REMARK  114  A    between atoms: _258  and  _260
REMARK  115  A    between atoms: _260  and  _261
REMARK  116  A    between atoms: _260  and  _263
REMARK  117  A    between atoms: _263  and  _264
REMARK  118  A    between atoms: _264  and  _265
REMARK  119  A    between atoms: _268  and  _270
REMARK  120  A    between atoms: _270  and  _271
REMARK  121  A    between atoms: _270  and  _273
REMARK  122  A    between atoms: _273  and  _274
REMARK  123  A    between atoms: _280  and  _282
REMARK  124  A    between atoms: _282  and  _283
REMARK  125  A    between atoms: _282  and  _285
REMARK  126  A    between atoms: _285  and  _286
REMARK  127  A    between atoms: _289  and  _291
REMARK  128  A    between atoms: _291  and  _292
REMARK  129  A    between atoms: _291  and  _294
REMARK  130  A    between atoms: _294  and  _295
REMARK  131  A    between atoms: _300  and  _302
REMARK  132  A    between atoms: _302  and  _303
REMARK  133  A    between atoms: _302  and  _305
REMARK  134  A    between atoms: _305  and  _306
REMARK  135  A    between atoms: _306  and  _307
REMARK  136  A    between atoms: _312  and  _314
REMARK  137  A    between atoms: _314  and  _315
REMARK  138  A    between atoms: _314  and  _317
REMARK  139  A    between atoms: _317  and  _318
REMARK  140  A    between atoms: _321  and  _323
REMARK  141  A    between atoms: _323  and  _324
REMARK  142  A    between atoms: _323  and  _326
REMARK  143  A    between atoms: _326  and  _327
REMARK  144  A    between atoms: _330  and  _332
REMARK  145  A    between atoms: _332  and  _333
REMARK  146  A    between atoms: _332  and  _335
REMARK  147  A    between atoms: _335  and  _336
REMARK  148  A    between atoms: _336  and  _337
REMARK  149  A    between atoms: _337  and  _338
REMARK  150  A    between atoms: _338  and  _339
REMARK  151  A    between atoms: _343  and  _345
REMARK  152  A    between atoms: _345  and  _346
REMARK  153  A    between atoms: _345  and  _348
REMARK  154  A    between atoms: _348  and  _349
REMARK  155  A    between atoms: _349  and  _350
REMARK  156  A    between atoms: _350  and  _351
REMARK  157  A    between atoms: _351  and  _352
REMARK  158  A    between atoms: _356  and  _358
REMARK  159  A    between atoms: _358  and  _359
REMARK  160  A    between atoms: _358  and  _361
REMARK  161  A    between atoms: _361  and  _362
REMARK  162  A    between atoms: _368  and  _370
REMARK  163  A    between atoms: _370  and  _371
REMARK  164  A    between atoms: _370  and  _373
REMARK  165  A    between atoms: _373  and  _374
REMARK  166  A    between atoms: _377  and  _379
REMARK  167  A    between atoms: _379  and  _380
REMARK  168  A    between atoms: _379  and  _382
REMARK  169  A    between atoms: _382  and  _383
REMARK  170  A    between atoms: _388  and  _390
REMARK  171  A    between atoms: _390  and  _391
REMARK  172  A    between atoms: _390  and  _393
REMARK  173  A    between atoms: _393  and  _394
REMARK  174  A    between atoms: _394  and  _395
REMARK  175  A    between atoms: _395  and  _396
REMARK  176  A    between atoms: _396  and  _397
REMARK  177  A    between atoms: _402  and  _403
REMARK  178  A    between atoms: _408  and  _410
REMARK  179  A    between atoms: _410  and  _411
REMARK  180  A    between atoms: _410  and  _413
REMARK  181  A    between atoms: _413  and  _414
REMARK  182  A    between atoms: _414  and  _415
REMARK  183  A    between atoms: _420  and  _422
REMARK  184  A    between atoms: _422  and  _423
REMARK  185  A    between atoms: _422  and  _425
REMARK  186  A    between atoms: _425  and  _426
REMARK  187  A    between atoms: _431  and  _433
REMARK  188  A    between atoms: _433  and  _434
REMARK  189  A    between atoms: _433  and  _436
REMARK  190  A    between atoms: _436  and  _437
REMARK  191  A    between atoms: _440  and  _442
REMARK  192  A    between atoms: _442  and  _443
REMARK  193  A    between atoms: _442  and  _445
REMARK  194  A    between atoms: _445  and  _446
REMARK  195  A    between atoms: _449  and  _451
REMARK  196  A    between atoms: _451  and  _452
REMARK  197  A    between atoms: _451  and  _454
REMARK  198  A    between atoms: _454  and  _455
REMARK  199  A    between atoms: _458  and  _460
REMARK  200  A    between atoms: _460  and  _461
REMARK  201  A    between atoms: _460  and  _463
REMARK  202  A    between atoms: _463  and  _464
REMARK  203  A    between atoms: _464  and  _465
REMARK  204  A    between atoms: _465  and  _466
REMARK  205  A    between atoms: _466  and  _467
REMARK  206  A    between atoms: _471  and  _473
REMARK  207  A    between atoms: _473  and  _474
REMARK  208  A    between atoms: _473  and  _476
REMARK  209  A    between atoms: _476  and  _477
REMARK  210  A    between atoms: _480  and  _482
REMARK  211  A    between atoms: _482  and  _483
REMARK  212  A    between atoms: _486  and  _488
REMARK  213  A    between atoms: _488  and  _489
REMARK  214  A    between atoms: _488  and  _491
REMARK  215  A    between atoms: _491  and  _492
REMARK  216  A    between atoms: _495  and  _497
REMARK  217  A    between atoms: _497  and  _498
REMARK  218  A    between atoms: _497  and  _500
REMARK  219  A    between atoms: _500  and  _501
REMARK  220  A    between atoms: _507  and  _509
REMARK  221  A    between atoms: _509  and  _510
REMARK  222  A    between atoms: _509  and  _512
REMARK  223  A    between atoms: _512  and  _513
REMARK  224  A    between atoms: _516  and  _518
REMARK  225  A    between atoms: _518  and  _519
REMARK  226  A    between atoms: _518  and  _521
REMARK  227  A    between atoms: _521  and  _522
REMARK                            x       y       z     vdW  Elec       q    Type
REMARK                         _______ _______ _______ _____ _____    ______ ____
ROOT
ATOM      1  O   HOH     1      23.900  25.657  24.300  0.00  0.00    +0.000 OA
ENDROOT
TORSDOF 0
REMARK  Name = ../refined-set-2016/2xnb/2xnb_pocket.pdb
REMARK  227 active torsions:
REMARK  status: ('A' for Active; 'I' for Inactive)
REMARK    1  A    between atoms: _1  and  _3
REMARK    2  A    between atoms: _3  and  _4
REMARK    3  A    between atoms: _3  and  _6
REMARK    4  A    between atoms: _6  and  _7
REMARK    5  A    between atoms: _7  and  _8
REMARK    6  A    between atoms: _11  and  _13
REMARK    7  A    between atoms: _13  and  _14
REMARK    8  A    between atoms: _13  and  _16
REMARK    9  A    between atoms: _16  and  _17
REMARK   10  A    between atoms: _17  and  _18
REMARK   11  A    between atoms: _18  and  _19
REMARK   12  A    between atoms: _19  and  _20
REMARK   13  A    between atoms: _24  and  _26
REMARK   14  A    between atoms: _26  and  _27
REMARK   15  A    between atoms: _26  and  _29
REMARK   16  A    between atoms: _29  and  _30
REMARK   17  A    between atoms: _33  and  _35
REMARK   18  A    between atoms: _35  and  _36
REMARK   19  A    between atoms: _38  and  _40
REMARK   20  A    between atoms: _40  and  _41
REMARK   21  A    between atoms: _40  and  _43
REMARK   22  A    between atoms: _43  and  _44
REMARK   23  A    between atoms: _44  and  _45
REMARK   24  A    between atoms: _48  and  _50
REMARK   25  A    between atoms: _50  and  _51
REMARK   26  A    between atoms: _53  and  _55
REMARK   27  A    between atoms: _55  and  _56
REMARK   28  A    between atoms: _55  and  _58
REMARK   29  A    between atoms: _58  and  _59
REMARK   30  A    between atoms: _62  and  _64
REMARK   31  A    between atoms: _64  and  _65
REMARK   32  A    between atoms: _64  and  _67
REMARK   33  A    between atoms: _67  and  _68
REMARK   34  A    between atoms: _73  and  _74
REMARK   35  A    between atoms: _76  and  _78
REMARK   36  A    between atoms: _78  and  _79
REMARK   37  A    between atoms: _81  and  _83
REMARK   38  A    between atoms: _83  and  _84
REMARK   39  A    between atoms: _83  and  _86
REMARK   40  A    between atoms: _89  and  _91
REMARK   41  A    between atoms: _91  and  _92
REMARK   42  A    between atoms: _91  and  _94
REMARK   43  A    between atoms: _97  and  _99
REMARK   44  A    between atoms: _99  and  _100
REMARK   45  A    between atoms: _99  and  _102
REMARK   46  A    between atoms: _102  and  _103
REMARK   47  A    between atoms: _108  and  _109
REMARK   48  A    between atoms: _111  and  _113
REMARK   49  A    between atoms: _113  and  _114
REMARK   50  A    between atoms: _113  and  _116
REMARK   51  A    between atoms: _116  and  _117
REMARK   52  A    between atoms: _117  and  _118
REMARK   53  A    between atoms: _118  and  _119
REMARK   54  A    between atoms: _119  and  _120
REMARK   55  A    between atoms: _124  and  _126
REMARK   56  A    between atoms: _126  and  _127
REMARK   57  A    between atoms: _126  and  _129
REMARK   58  A    between atoms: _132  and  _134
REMARK   59  A    between atoms: _134  and  _135
REMARK   60  A    between atoms: _134  and  _137
REMARK   61  A    between atoms: _140  and  _142
REMARK   62  A    between atoms: _142  and  _143
REMARK   63  A    between atoms: _146  and  _148
REMARK   64  A    between atoms: _148  and  _149
REMARK   65  A    between atoms: _148  and  _151
REMARK   66  A    between atoms: _151  and  _152
REMARK   67  A    between atoms: _155  and  _157
REMARK   68  A    between atoms: _157  and  _158
REMARK   69  A    between atoms: _157  and  _160
REMARK   70  A    between atoms: _160  and  _161
REMARK   71  A    between atoms: _161  and  _162
REMARK   72  A    between atoms: _162  and  _163
REMARK   73  A    between atoms: _163  and  _164
REMARK   74  A    between atoms: _168  and  _170
REMARK   75  A    between atoms: _170  and  _171
REMARK   76  A    between atoms: _170  and  _173
REMARK   77  A    between atoms: _173  and  _174
REMARK   78  A    between atoms: _174  and  _175
REMARK   79  A    between atoms: _175  and  _176
REMARK   80  A    between atoms: _176  and  _177
REMARK   81  A    between atoms: _181  and  _183
REMARK   82  A    between atoms: _183  and  _184
REMARK   83  A    between atoms: _183  and  _186
REMARK   84  A    between atoms: _186  and  _187
REMARK   85  A    between atoms: _190  and  _192
REMARK   86  A    between atoms: _192  and  _193
REMARK   87  A    between atoms: _192  and  _195
REMARK   88  A    between atoms: _198  and  _200
REMARK   89  A    between atoms: _200  and  _201
REMARK   90  A    between atoms: _200  and  _203
REMARK   91  A    between atoms: _203  and  _204
REMARK   92  A    between atoms: _204  and  _205
REMARK   93  A    between atoms: _205  and  _206
REMARK   94  A    between atoms: _206  and  _207
REMARK   95  A    between atoms: _211  and  _213
REMARK   96  A    between atoms: _213  and  _214
REMARK   97  A    between atoms: _213  and  _216
REMARK   98  A    between atoms: _216  and  _217
REMARK   99  A    between atoms: _220  and  _222
REMARK  100  A    between atoms: _222  and  _223
REMARK  101  A    between atoms: _222  and  _225
REMARK  102  A    between atoms: _225  and  _226
REMARK  103  A    between atoms: _229  and  _231
REMARK  104  A    between atoms: _231  and  _232
REMARK  105  A    between atoms: _231  and  _234
REMARK  106  A    between atoms: _234  and  _235
REMARK  107  A    between atoms: _238  and  _240
REMARK  108  A    between atoms: _240  and  _241
REMARK  109  A    between atoms: _240  and  _243
REMARK  110  A    between atoms: _246  and  _248
REMARK  111  A    between atoms: _248  and  _249
REMARK  112  A    between atoms: _248  and  _251
REMARK  113  A    between atoms: _251  and  _252
REMARK  114  A    between atoms: _258  and  _260
REMARK  115  A    between atoms: _260  and  _261
REMARK  116  A    between atoms: _260  and  _263
REMARK  117  A    between atoms: _263  and  _264
REMARK  118  A    between atoms: _264  and  _265
REMARK  119  A    between atoms: _268  and  _270
REMARK  120  A    between atoms: _270  and  _271
REMARK  121  A    between atoms: _270  and  _273
REMARK  122  A    between atoms: _273  and  _274
REMARK  123  A    between atoms: _280  and  _282
REMARK  124  A    between atoms: _282  and  _283
REMARK  125  A    between atoms: _282  and  _285
REMARK  126  A    between atoms: _285  and  _286
REMARK  127  A    between atoms: _289  and  _291
REMARK  128  A    between atoms: _291  and  _292
REMARK  129  A    between atoms: _291  and  _294
REMARK  130  A    between atoms: _294  and  _295
REMARK  131  A    between atoms: _300  and  _302
REMARK  132  A    between atoms: _302  and  _303
REMARK  133  A    between atoms: _302  and  _305
REMARK  134  A    between atoms: _305  and  _306
REMARK  135  A    between atoms: _306  and  _307
REMARK  136  A    between atoms: _312  and  _314
REMARK  137  A    between atoms: _314  and  _315
REMARK  138  A    between atoms: _314  and  _317
REMARK  139  A    between atoms: _317  and  _318
REMARK  140  A    between atoms: _321  and  _323
REMARK  141  A    between atoms: _323  and  _324
REMARK  142  A    between atoms: _323  and  _326
REMARK  143  A    between atoms: _326  and  _327
REMARK  144  A    between atoms: _330  and  _332
REMARK  145  A    between atoms: _332  and  _333
REMARK  146  A    between atoms: _332  and  _335
REMARK  147  A    between atoms: _335  and  _336
REMARK  148  A    between atoms: _336  and  _337
REMARK  149  A    between atoms: _337  and  _338
REMARK  150  A    between atoms: _338  and  _339
REMARK  151  A    between atoms: _343  and  _345
REMARK  152  A    between atoms: _345  and  _346
REMARK  153  A    between atoms: _345  and  _348
REMARK  154  A    between atoms: _348  and  _349
REMARK  155  A    between atoms: _349  and  _350
REMARK  156  A    between atoms: _350  and  _351
REMARK  157  A    between atoms: _351  and  _352
REMARK  158  A    between atoms: _356  and  _358
REMARK  159  A    between atoms: _358  and  _359
REMARK  160  A    between atoms: _358  and  _361
REMARK  161  A    between atoms: _361  and  _362
REMARK  162  A    between atoms: _368  and  _370
REMARK  163  A    between atoms: _370  and  _371
REMARK  164  A    between atoms: _370  and  _373
REMARK  165  A    between atoms: _373  and  _374
REMARK  166  A    between atoms: _377  and  _379
REMARK  167  A    between atoms: _379  and  _380
REMARK  168  A    between atoms: _379  and  _382
REMARK  169  A    between atoms: _382  and  _383
REMARK  170  A    between atoms: _388  and  _390
REMARK  171  A    between atoms: _390  and  _391
REMARK  172  A    between atoms: _390  and  _393
REMARK  173  A    between atoms: _393  and  _394
REMARK  174  A    between atoms: _394  and  _395
REMARK  175  A    between atoms: _395  and  _396
REMARK  176  A    between atoms: _396  and  _397
REMARK  177  A    between atoms: _402  and  _403
REMARK  178  A    between atoms: _408  and  _410
REMARK  179  A    between atoms: _410  and  _411
REMARK  180  A    between atoms: _410  and  _413
REMARK  181  A    between atoms: _413  and  _414
REMARK  182  A    between atoms: _414  and  _415
REMARK  183  A    between atoms: _420  and  _422
REMARK  184  A    between atoms: _422  and  _423
REMARK  185  A    between atoms: _422  and  _425
REMARK  186  A    between atoms: _425  and  _426
REMARK  187  A    between atoms: _431  and  _433
REMARK  188  A    between atoms: _433  and  _434
REMARK  189  A    between atoms: _433  and  _436
REMARK  190  A    between atoms: _436  and  _437
REMARK  191  A    between atoms: _440  and  _442
REMARK  192  A    between atoms: _442  and  _443
REMARK  193  A    between atoms: _442  and  _445
REMARK  194  A    between atoms: _445  and  _446
REMARK  195  A    between atoms: _449  and  _451
REMARK  196  A    between atoms: _451  and  _452
REMARK  197  A    between atoms: _451  and  _454
REMARK  198  A    between atoms: _454  and  _455
REMARK  199  A    between atoms: _458  and  _460
REMARK  200  A    between atoms: _460  and  _461
REMARK  201  A    between atoms: _460  and  _463
REMARK  202  A    between atoms: _463  and  _464
REMARK  203  A    between atoms: _464  and  _465
REMARK  204  A    between atoms: _465  and  _466
REMARK  205  A    between atoms: _466  and  _467
REMARK  206  A    between atoms: _471  and  _473
REMARK  207  A    between atoms: _473  and  _474
REMARK  208  A    between atoms: _473  and  _476
REMARK  209  A    between atoms: _476  and  _477
REMARK  210  A    between atoms: _480  and  _482
REMARK  211  A    between atoms: _482  and  _483
REMARK  212  A    between atoms: _486  and  _488
REMARK  213  A    between atoms: _488  and  _489
REMARK  214  A    between atoms: _488  and  _491
REMARK  215  A    between atoms: _491  and  _492
REMARK  216  A    between atoms: _495  and  _497
REMARK  217  A    between atoms: _497  and  _498
REMARK  218  A    between atoms: _497  and  _500
REMARK  219  A    between atoms: _500  and  _501
REMARK  220  A    between atoms: _507  and  _509
REMARK  221  A    between atoms: _509  and  _510
REMARK  222  A    between atoms: _509  and  _512
REMARK  223  A    between atoms: _512  and  _513
REMARK  224  A    between atoms: _516  and  _518
REMARK  225  A    between atoms: _518  and  _519
REMARK  226  A    between atoms: _518  and  _521
REMARK  227  A    between atoms: _521  and  _522
REMARK                            x       y       z     vdW  Elec       q    Type
REMARK                         _______ _______ _______ _____ _____    ______ ____
ROOT
ATOM      1  O   HOH     1      27.625  25.351  21.077  0.00  0.00    +0.000 OA
ENDROOT
TORSDOF 0
REMARK  Name = ../refined-set-2016/2xnb/2xnb_pocket.pdb
REMARK  227 active torsions:
REMARK  status: ('A' for Active; 'I' for Inactive)
REMARK    1  A    between atoms: _1  and  _3
REMARK    2  A    between atoms: _3  and  _4
REMARK    3  A    between atoms: _3  and  _6
REMARK    4  A    between atoms: _6  and  _7
REMARK    5  A    between atoms: _7  and  _8
REMARK    6  A    between atoms: _11  and  _13
REMARK    7  A    between atoms: _13  and  _14
REMARK    8  A    between atoms: _13  and  _16
REMARK    9  A    between atoms: _16  and  _17
REMARK   10  A    between atoms: _17  and  _18
REMARK   11  A    between atoms: _18  and  _19
REMARK   12  A    between atoms: _19  and  _20
REMARK   13  A    between atoms: _24  and  _26
REMARK   14  A    between atoms: _26  and  _27
REMARK   15  A    between atoms: _26  and  _29
REMARK   16  A    between atoms: _29  and  _30
REMARK   17  A    between atoms: _33  and  _35
REMARK   18  A    between atoms: _35  and  _36
REMARK   19  A    between atoms: _38  and  _40
REMARK   20  A    between atoms: _40  and  _41
REMARK   21  A    between atoms: _40  and  _43
REMARK   22  A    between atoms: _43  and  _44
REMARK   23  A    between atoms: _44  and  _45
REMARK   24  A    between atoms: _48  and  _50
REMARK   25  A    between atoms: _50  and  _51
REMARK   26  A    between atoms: _53  and  _55
REMARK   27  A    between atoms: _55  and  _56
REMARK   28  A    between atoms: _55  and  _58
REMARK   29  A    between atoms: _58  and  _59
REMARK   30  A    between atoms: _62  and  _64
REMARK   31  A    between atoms: _64  and  _65
REMARK   32  A    between atoms: _64  and  _67
REMARK   33  A    between atoms: _67  and  _68
REMARK   34  A    between atoms: _73  and  _74
REMARK   35  A    between atoms: _76  and  _78
REMARK   36  A    between atoms: _78  and  _79
REMARK   37  A    between atoms: _81  and  _83
REMARK   38  A    between atoms: _83  and  _84
REMARK   39  A    between atoms: _83  and  _86
REMARK   40  A    between atoms: _89  and  _91
REMARK   41  A    between atoms: _91  and  _92
REMARK   42  A    between atoms: _91  and  _94
REMARK   43  A    between atoms: _97  and  _99
REMARK   44  A    between atoms: _99  and  _100
REMARK   45  A    between atoms: _99  and  _102
REMARK   46  A    between atoms: _102  and  _103
REMARK   47  A    between atoms: _108  and  _109
REMARK   48  A    between atoms: _111  and  _113
REMARK   49  A    between atoms: _113  and  _114
REMARK   50  A    between atoms: _113  and  _116
REMARK   51  A    between atoms: _116  and  _117
REMARK   52  A    between atoms: _117  and  _118
REMARK   53  A    between atoms: _118  and  _119
REMARK   54  A    between atoms: _119  and  _120
REMARK   55  A    between atoms: _124  and  _126
REMARK   56  A    between atoms: _126  and  _127
REMARK   57  A    between atoms: _126  and  _129
REMARK   58  A    between atoms: _132  and  _134
REMARK   59  A    between atoms: _134  and  _135
REMARK   60  A    between atoms: _134  and  _137
REMARK   61  A    between atoms: _140  and  _142
REMARK   62  A    between atoms: _142  and  _143
REMARK   63  A    between atoms: _146  and  _148
REMARK   64  A    between atoms: _148  and  _149
REMARK   65  A    between atoms: _148  and  _151
REMARK   66  A    between atoms: _151  and  _152
REMARK   67  A    between atoms: _155  and  _157
REMARK   68  A    between atoms: _157  and  _158
REMARK   69  A    between atoms: _157  and  _160
REMARK   70  A    between atoms: _160  and  _161
REMARK   71  A    between atoms: _161  and  _162
REMARK   72  A    between atoms: _162  and  _163
REMARK   73  A    between atoms: _163  and  _164
REMARK   74  A    between atoms: _168  and  _170
REMARK   75  A    between atoms: _170  and  _171
REMARK   76  A    between atoms: _170  and  _173
REMARK   77  A    between atoms: _173  and  _174
REMARK   78  A    between atoms: _174  and  _175
REMARK   79  A    between atoms: _175  and  _176
REMARK   80  A    between atoms: _176  and  _177
REMARK   81  A    between atoms: _181  and  _183
REMARK   82  A    between atoms: _183  and  _184
REMARK   83  A    between atoms: _183  and  _186
REMARK   84  A    between atoms: _186  and  _187
REMARK   85  A    between atoms: _190  and  _192
REMARK   86  A    between atoms: _192  and  _193
REMARK   87  A    between atoms: _192  and  _195
REMARK   88  A    between atoms: _198  and  _200
REMARK   89  A    between atoms: _200  and  _201
REMARK   90  A    between atoms: _200  and  _203
REMARK   91  A    between atoms: _203  and  _204
REMARK   92  A    between atoms: _204  and  _205
REMARK   93  A    between atoms: _205  and  _206
REMARK   94  A    between atoms: _206  and  _207
REMARK   95  A    between atoms: _211  and  _213
REMARK   96  A    between atoms: _213  and  _214
REMARK   97  A    between atoms: _213  and  _216
REMARK   98  A    between atoms: _216  and  _217
REMARK   99  A    between atoms: _220  and  _222
REMARK  100  A    between atoms: _222  and  _223
REMARK  101  A    between atoms: _222  and  _225
REMARK  102  A    between atoms: _225  and  _226
REMARK  103  A    between atoms: _229  and  _231
REMARK  104  A    between atoms: _231  and  _232
REMARK  105  A    between atoms: _231  and  _234
REMARK  106  A    between atoms: _234  and  _235
REMARK  107  A    between atoms: _238  and  _240
REMARK  108  A    between atoms: _240  and  _241
REMARK  109  A    between atoms: _240  and  _243
REMARK  110  A    between atoms: _246  and  _248
REMARK  111  A    between atoms: _248  and  _249
REMARK  112  A    between atoms: _248  and  _251
REMARK  113  A    between atoms: _251  and  _252
REMARK  114  A    between atoms: _258  and  _260
REMARK  115  A    between atoms: _260  and  _261
REMARK  116  A    between atoms: _260  and  _263
REMARK  117  A    between atoms: _263  and  _264
REMARK  118  A    between atoms: _264  and  _265
REMARK  119  A    between atoms: _268  and  _270
REMARK  120  A    between atoms: _270  and  _271
REMARK  121  A    between atoms: _270  and  _273
REMARK  122  A    between atoms: _273  and  _274
REMARK  123  A    between atoms: _280  and  _282
REMARK  124  A    between atoms: _282  and  _283
REMARK  125  A    between atoms: _282  and  _285
REMARK  126  A    between atoms: _285  and  _286
REMARK  127  A    between atoms: _289  and  _291
REMARK  128  A    between atoms: _291  and  _292
REMARK  129  A    between atoms: _291  and  _294
REMARK  130  A    between atoms: _294  and  _295
REMARK  131  A    between atoms: _300  and  _302
REMARK  132  A    between atoms: _302  and  _303
REMARK  133  A    between atoms: _302  and  _305
REMARK  134  A    between atoms: _305  and  _306
REMARK  135  A    between atoms: _306  and  _307
REMARK  136  A    between atoms: _312  and  _314
REMARK  137  A    between atoms: _314  and  _315
REMARK  138  A    between atoms: _314  and  _317
REMARK  139  A    between atoms: _317  and  _318
REMARK  140  A    between atoms: _321  and  _323
REMARK  141  A    between atoms: _323  and  _324
REMARK  142  A    between atoms: _323  and  _326
REMARK  143  A    between atoms: _326  and  _327
REMARK  144  A    between atoms: _330  and  _332
REMARK  145  A    between atoms: _332  and  _333
REMARK  146  A    between atoms: _332  and  _335
REMARK  147  A    between atoms: _335  and  _336
REMARK  148  A    between atoms: _336  and  _337
REMARK  149  A    between atoms: _337  and  _338
REMARK  150  A    between atoms: _338  and  _339
REMARK  151  A    between atoms: _343  and  _345
REMARK  152  A    between atoms: _345  and  _346
REMARK  153  A    between atoms: _345  and  _348
REMARK  154  A    between atoms: _348  and  _349
REMARK  155  A    between atoms: _349  and  _350
REMARK  156  A    between atoms: _350  and  _351
REMARK  157  A    between atoms: _351  and  _352
REMARK  158  A    between atoms: _356  and  _358
REMARK  159  A    between atoms: _358  and  _359
REMARK  160  A    between atoms: _358  and  _361
REMARK  161  A    between atoms: _361  and  _362
REMARK  162  A    between atoms: _368  and  _370
REMARK  163  A    between atoms: _370  and  _371
REMARK  164  A    between atoms: _370  and  _373
REMARK  165  A    between atoms: _373  and  _374
REMARK  166  A    between atoms: _377  and  _379
REMARK  167  A    between atoms: _379  and  _380
REMARK  168  A    between atoms: _379  and  _382
REMARK  169  A    between atoms: _382  and  _383
REMARK  170  A    between atoms: _388  and  _390
REMARK  171  A    between atoms: _390  and  _391
REMARK  172  A    between atoms: _390  and  _393
REMARK  173  A    between atoms: _393  and  _394
REMARK  174  A    between atoms: _394  and  _395
REMARK  175  A    between atoms: _395  and  _396
REMARK  176  A    between atoms: _396  and  _397
REMARK  177  A    between atoms: _402  and  _403
REMARK  178  A    between atoms: _408  and  _410
REMARK  179  A    between atoms: _410  and  _411
REMARK  180  A    between atoms: _410  and  _413
REMARK  181  A    between atoms: _413  and  _414
REMARK  182  A    between atoms: _414  and  _415
REMARK  183  A    between atoms: _420  and  _422
REMARK  184  A    between atoms: _422  and  _423
REMARK  185  A    between atoms: _422  and  _425
REMARK  186  A    between atoms: _425  and  _426
REMARK  187  A    between atoms: _431  and  _433
REMARK  188  A    between atoms: _433  and  _434
REMARK  189  A    between atoms: _433  and  _436
REMARK  190  A    between atoms: _436  and  _437
REMARK  191  A    between atoms: _440  and  _442
REMARK  192  A    between atoms: _442  and  _443
REMARK  193  A    between atoms: _442  and  _445
REMARK  194  A    between atoms: _445  and  _446
REMARK  195  A    between atoms: _449  and  _451
REMARK  196  A    between atoms: _451  and  _452
REMARK  197  A    between atoms: _451  and  _454
REMARK  198  A    between atoms: _454  and  _455
REMARK  199  A    between atoms: _458  and  _460
REMARK  200  A    between atoms: _460  and  _461
REMARK  201  A    between atoms: _460  and  _463
REMARK  202  A    between atoms: _463  and  _464
REMARK  203  A    between atoms: _464  and  _465
REMARK  204  A    between atoms: _465  and  _466
REMARK  205  A    between atoms: _466  and  _467
REMARK  206  A    between atoms: _471  and  _473
REMARK  207  A    between atoms: _473  and  _474
REMARK  208  A    between atoms: _473  and  _476
REMARK  209  A    between atoms: _476  and  _477
REMARK  210  A    between atoms: _480  and  _482
REMARK  211  A    between atoms: _482  and  _483
REMARK  212  A    between atoms: _486  and  _488
REMARK  213  A    between atoms: _488  and  _489
REMARK  214  A    between atoms: _488  and  _491
REMARK  215  A    between atoms: _491  and  _492
REMARK  216  A    between atoms: _495  and  _497
REMARK  217  A    between atoms: _497  and  _498
REMARK  218  A    between atoms: _497  and  _500
REMARK  219  A    between atoms: _500  and  _501
REMARK  220  A    between atoms: _507  and  _509
REMARK  221  A    between atoms: _509  and  _510
REMARK  222  A    between atoms: _509  and  _512
REMARK  223  A    between atoms: _512  and  _513
REMARK  224  A    between atoms: _516  and  _518
REMARK  225  A    between atoms: _518  and  _519
REMARK  226  A    between atoms: _518  and  _521
REMARK  227  A    between atoms: _521  and  _522
REMARK                            x       y       z     vdW  Elec       q    Type
REMARK                         _______ _______ _______ _____ _____    ______ ____
ROOT
ATOM      1  O   HOH     1      29.790  33.614  23.781  0.00  0.00    +0.000 OA
ENDROOT
TORSDOF 0
REMARK  Name = ../refined-set-2016/2xnb/2xnb_pocket.pdb
REMARK  227 active torsions:
REMARK  status: ('A' for Active; 'I' for Inactive)
REMARK    1  A    between atoms: _1  and  _3
REMARK    2  A    between atoms: _3  and  _4
REMARK    3  A    between atoms: _3  and  _6
REMARK    4  A    between atoms: _6  and  _7
REMARK    5  A    between atoms: _7  and  _8
REMARK    6  A    between atoms: _11  and  _13
REMARK    7  A    between atoms: _13  and  _14
REMARK    8  A    between atoms: _13  and  _16
REMARK    9  A    between atoms: _16  and  _17
REMARK   10  A    between atoms: _17  and  _18
REMARK   11  A    between atoms: _18  and  _19
REMARK   12  A    between atoms: _19  and  _20
REMARK   13  A    between atoms: _24  and  _26
REMARK   14  A    between atoms: _26  and  _27
REMARK   15  A    between atoms: _26  and  _29
REMARK   16  A    between atoms: _29  and  _30
REMARK   17  A    between atoms: _33  and  _35
REMARK   18  A    between atoms: _35  and  _36
REMARK   19  A    between atoms: _38  and  _40
REMARK   20  A    between atoms: _40  and  _41
REMARK   21  A    between atoms: _40  and  _43
REMARK   22  A    between atoms: _43  and  _44
REMARK   23  A    between atoms: _44  and  _45
REMARK   24  A    between atoms: _48  and  _50
REMARK   25  A    between atoms: _50  and  _51
REMARK   26  A    between atoms: _53  and  _55
REMARK   27  A    between atoms: _55  and  _56
REMARK   28  A    between atoms: _55  and  _58
REMARK   29  A    between atoms: _58  and  _59
REMARK   30  A    between atoms: _62  and  _64
REMARK   31  A    between atoms: _64  and  _65
REMARK   32  A    between atoms: _64  and  _67
REMARK   33  A    between atoms: _67  and  _68
REMARK   34  A    between atoms: _73  and  _74
REMARK   35  A    between atoms: _76  and  _78
REMARK   36  A    between atoms: _78  and  _79
REMARK   37  A    between atoms: _81  and  _83
REMARK   38  A    between atoms: _83  and  _84
REMARK   39  A    between atoms: _83  and  _86
REMARK   40  A    between atoms: _89  and  _91
REMARK   41  A    between atoms: _91  and  _92
REMARK   42  A    between atoms: _91  and  _94
REMARK   43  A    between atoms: _97  and  _99
REMARK   44  A    between atoms: _99  and  _100
REMARK   45  A    between atoms: _99  and  _102
REMARK   46  A    between atoms: _102  and  _103
REMARK   47  A    between atoms: _108  and  _109
REMARK   48  A    between atoms: _111  and  _113
REMARK   49  A    between atoms: _113  and  _114
REMARK   50  A    between atoms: _113  and  _116
REMARK   51  A    between atoms: _116  and  _117
REMARK   52  A    between atoms: _117  and  _118
REMARK   53  A    between atoms: _118  and  _119
REMARK   54  A    between atoms: _119  and  _120
REMARK   55  A    between atoms: _124  and  _126
REMARK   56  A    between atoms: _126  and  _127
REMARK   57  A    between atoms: _126  and  _129
REMARK   58  A    between atoms: _132  and  _134
REMARK   59  A    between atoms: _134  and  _135
REMARK   60  A    between atoms: _134  and  _137
REMARK   61  A    between atoms: _140  and  _142
REMARK   62  A    between atoms: _142  and  _143
REMARK   63  A    between atoms: _146  and  _148
REMARK   64  A    between atoms: _148  and  _149
REMARK   65  A    between atoms: _148  and  _151
REMARK   66  A    between atoms: _151  and  _152
REMARK   67  A    between atoms: _155  and  _157
REMARK   68  A    between atoms: _157  and  _158
REMARK   69  A    between atoms: _157  and  _160
REMARK   70  A    between atoms: _160  and  _161
REMARK   71  A    between atoms: _161  and  _162
REMARK   72  A    between atoms: _162  and  _163
REMARK   73  A    between atoms: _163  and  _164
REMARK   74  A    between atoms: _168  and  _170
REMARK   75  A    between atoms: _170  and  _171
REMARK   76  A    between atoms: _170  and  _173
REMARK   77  A    between atoms: _173  and  _174
REMARK   78  A    between atoms: _174  and  _175
REMARK   79  A    between atoms: _175  and  _176
REMARK   80  A    between atoms: _176  and  _177
REMARK   81  A    between atoms: _181  and  _183
REMARK   82  A    between atoms: _183  and  _184
REMARK   83  A    between atoms: _183  and  _186
REMARK   84  A    between atoms: _186  and  _187
REMARK   85  A    between atoms: _190  and  _192
REMARK   86  A    between atoms: _192  and  _193
REMARK   87  A    between atoms: _192  and  _195
REMARK   88  A    between atoms: _198  and  _200
REMARK   89  A    between atoms: _200  and  _201
REMARK   90  A    between atoms: _200  and  _203
REMARK   91  A    between atoms: _203  and  _204
REMARK   92  A    between atoms: _204  and  _205
REMARK   93  A    between atoms: _205  and  _206
REMARK   94  A    between atoms: _206  and  _207
REMARK   95  A    between atoms: _211  and  _213
REMARK   96  A    between atoms: _213  and  _214
REMARK   97  A    between atoms: _213  and  _216
REMARK   98  A    between atoms: _216  and  _217
REMARK   99  A    between atoms: _220  and  _222
REMARK  100  A    between atoms: _222  and  _223
REMARK  101  A    between atoms: _222  and  _225
REMARK  102  A    between atoms: _225  and  _226
REMARK  103  A    between atoms: _229  and  _231
REMARK  104  A    between atoms: _231  and  _232
REMARK  105  A    between atoms: _231  and  _234
REMARK  106  A    between atoms: _234  and  _235
REMARK  107  A    between atoms: _238  and  _240
REMARK  108  A    between atoms: _240  and  _241
REMARK  109  A    between atoms: _240  and  _243
REMARK  110  A    between atoms: _246  and  _248
REMARK  111  A    between atoms: _248  and  _249
REMARK  112  A    between atoms: _248  and  _251
REMARK  113  A    between atoms: _251  and  _252
REMARK  114  A    between atoms: _258  and  _260
REMARK  115  A    between atoms: _260  and  _261
REMARK  116  A    between atoms: _260  and  _263
REMARK  117  A    between atoms: _263  and  _264
REMARK  118  A    between atoms: _264  and  _265
REMARK  119  A    between atoms: _268  and  _270
REMARK  120  A    between atoms: _270  and  _271
REMARK  121  A    between atoms: _270  and  _273
REMARK  122  A    between atoms: _273  and  _274
REMARK  123  A    between atoms: _280  and  _282
REMARK  124  A    between atoms: _282  and  _283
REMARK  125  A    between atoms: _282  and  _285
REMARK  126  A    between atoms: _285  and  _286
REMARK  127  A    between atoms: _289  and  _291
REMARK  128  A    between atoms: _291  and  _292
REMARK  129  A    between atoms: _291  and  _294
REMARK  130  A    between atoms: _294  and  _295
REMARK  131  A    between atoms: _300  and  _302
REMARK  132  A    between atoms: _302  and  _303
REMARK  133  A    between atoms: _302  and  _305
REMARK  134  A    between atoms: _305  and  _306
REMARK  135  A    between atoms: _306  and  _307
REMARK  136  A    between atoms: _312  and  _314
REMARK  137  A    between atoms: _314  and  _315
REMARK  138  A    between atoms: _314  and  _317
REMARK  139  A    between atoms: _317  and  _318
REMARK  140  A    between atoms: _321  and  _323
REMARK  141  A    between atoms: _323  and  _324
REMARK  142  A    between atoms: _323  and  _326
REMARK  143  A    between atoms: _326  and  _327
REMARK  144  A    between atoms: _330  and  _332
REMARK  145  A    between atoms: _332  and  _333
REMARK  146  A    between atoms: _332  and  _335
REMARK  147  A    between atoms: _335  and  _336
REMARK  148  A    between atoms: _336  and  _337
REMARK  149  A    between atoms: _337  and  _338
REMARK  150  A    between atoms: _338  and  _339
REMARK  151  A    between atoms: _343  and  _345
REMARK  152  A    between atoms: _345  and  _346
REMARK  153  A    between atoms: _345  and  _348
REMARK  154  A    between atoms: _348  and  _349
REMARK  155  A    between atoms: _349  and  _350
REMARK  156  A    between atoms: _350  and  _351
REMARK  157  A    between atoms: _351  and  _352
REMARK  158  A    between atoms: _356  and  _358
REMARK  159  A    between atoms: _358  and  _359
REMARK  160  A    between atoms: _358  and  _361
REMARK  161  A    between atoms: _361  and  _362
REMARK  162  A    between atoms: _368  and  _370
REMARK  163  A    between atoms: _370  and  _371
REMARK  164  A    between atoms: _370  and  _373
REMARK  165  A    between atoms: _373  and  _374
REMARK  166  A    between atoms: _377  and  _379
REMARK  167  A    between atoms: _379  and  _380
REMARK  168  A    between atoms: _379  and  _382
REMARK  169  A    between atoms: _382  and  _383
REMARK  170  A    between atoms: _388  and  _390
REMARK  171  A    between atoms: _390  and  _391
REMARK  172  A    between atoms: _390  and  _393
REMARK  173  A    between atoms: _393  and  _394
REMARK  174  A    between atoms: _394  and  _395
REMARK  175  A    between atoms: _395  and  _396
REMARK  176  A    between atoms: _396  and  _397
REMARK  177  A    between atoms: _402  and  _403
REMARK  178  A    between atoms: _408  and  _410
REMARK  179  A    between atoms: _410  and  _411
REMARK  180  A    between atoms: _410  and  _413
REMARK  181  A    between atoms: _413  and  _414
REMARK  182  A    between atoms: _414  and  _415
REMARK  183  A    between atoms: _420  and  _422
REMARK  184  A    between atoms: _422  and  _423
REMARK  185  A    between atoms: _422  and  _425
REMARK  186  A    between atoms: _425  and  _426
REMARK  187  A    between atoms: _431  and  _433
REMARK  188  A    between atoms: _433  and  _434
REMARK  189  A    between atoms: _433  and  _436
REMARK  190  A    between atoms: _436  and  _437
REMARK  191  A    between atoms: _440  and  _442
REMARK  192  A    between atoms: _442  and  _443
REMARK  193  A    between atoms: _442  and  _445
REMARK  194  A    between atoms: _445  and  _446
REMARK  195  A    between atoms: _449  and  _451
REMARK  196  A    between atoms: _451  and  _452
REMARK  197  A    between atoms: _451  and  _454
REMARK  198  A    between atoms: _454  and  _455
REMARK  199  A    between atoms: _458  and  _460
REMARK  200  A    between atoms: _460  and  _461
REMARK  201  A    between atoms: _460  and  _463
REMARK  202  A    between atoms: _463  and  _464
REMARK  203  A    between atoms: _464  and  _465
REMARK  204  A    between atoms: _465  and  _466
REMARK  205  A    between atoms: _466  and  _467
REMARK  206  A    between atoms: _471  and  _473
REMARK  207  A    between atoms: _473  and  _474
REMARK  208  A    between atoms: _473  and  _476
REMARK  209  A    between atoms: _476  and  _477
REMARK  210  A    between atoms: _480  and  _482
REMARK  211  A    between atoms: _482  and  _483
REMARK  212  A    between atoms: _486  and  _488
REMARK  213  A    between atoms: _488  and  _489
REMARK  214  A    between atoms: _488  and  _491
REMARK  215  A    between atoms: _491  and  _492
REMARK  216  A    between atoms: _495  and  _497
REMARK  217  A    between atoms: _497  and  _498
REMARK  218  A    between atoms: _497  and  _500
REMARK  219  A    between atoms: _500  and  _501
REMARK  220  A    between atoms: _507  and  _509
REMARK  221  A    between atoms: _509  and  _510
REMARK  222  A    between atoms: _509  and  _512
REMARK  223  A    between atoms: _512  and  _513
REMARK  224  A    between atoms: _516  and  _518
REMARK  225  A    between atoms: _518  and  _519
REMARK  226  A    between atoms: _518  and  _521
REMARK  227  A    between atoms: _521  and  _522
REMARK                            x       y       z     vdW  Elec       q    Type
REMARK                         _______ _______ _______ _____ _____    ______ ____
ROOT
ATOM      1  O   HOH     1      31.911  34.551  22.025  0.00  0.00    +0.000 OA
ENDROOT
TORSDOF 0
REMARK  Name = ../refined-set-2016/2xnb/2xnb_pocket.pdb
REMARK  227 active torsions:
REMARK  status: ('A' for Active; 'I' for Inactive)
REMARK    1  A    between atoms: _1  and  _3
REMARK    2  A    between atoms: _3  and  _4
REMARK    3  A    between atoms: _3  and  _6
REMARK    4  A    between atoms: _6  and  _7
REMARK    5  A    between atoms: _7  and  _8
REMARK    6  A    between atoms: _11  and  _13
REMARK    7  A    between atoms: _13  and  _14
REMARK    8  A    between atoms: _13  and  _16
REMARK    9  A    between atoms: _16  and  _17
REMARK   10  A    between atoms: _17  and  _18
REMARK   11  A    between atoms: _18  and  _19
REMARK   12  A    between atoms: _19  and  _20
REMARK   13  A    between atoms: _24  and  _26
REMARK   14  A    between atoms: _26  and  _27
REMARK   15  A    between atoms: _26  and  _29
REMARK   16  A    between atoms: _29  and  _30
REMARK   17  A    between atoms: _33  and  _35
REMARK   18  A    between atoms: _35  and  _36
REMARK   19  A    between atoms: _38  and  _40
REMARK   20  A    between atoms: _40  and  _41
REMARK   21  A    between atoms: _40  and  _43
REMARK   22  A    between atoms: _43  and  _44
REMARK   23  A    between atoms: _44  and  _45
REMARK   24  A    between atoms: _48  and  _50
REMARK   25  A    between atoms: _50  and  _51
REMARK   26  A    between atoms: _53  and  _55
REMARK   27  A    between atoms: _55  and  _56
REMARK   28  A    between atoms: _55  and  _58
REMARK   29  A    between atoms: _58  and  _59
REMARK   30  A    between atoms: _62  and  _64
REMARK   31  A    between atoms: _64  and  _65
REMARK   32  A    between atoms: _64  and  _67
REMARK   33  A    between atoms: _67  and  _68
REMARK   34  A    between atoms: _73  and  _74
REMARK   35  A    between atoms: _76  and  _78
REMARK   36  A    between atoms: _78  and  _79
REMARK   37  A    between atoms: _81  and  _83
REMARK   38  A    between atoms: _83  and  _84
REMARK   39  A    between atoms: _83  and  _86
REMARK   40  A    between atoms: _89  and  _91
REMARK   41  A    between atoms: _91  and  _92
REMARK   42  A    between atoms: _91  and  _94
REMARK   43  A    between atoms: _97  and  _99
REMARK   44  A    between atoms: _99  and  _100
REMARK   45  A    between atoms: _99  and  _102
REMARK   46  A    between atoms: _102  and  _103
REMARK   47  A    between atoms: _108  and  _109
REMARK   48  A    between atoms: _111  and  _113
REMARK   49  A    between atoms: _113  and  _114
REMARK   50  A    between atoms: _113  and  _116
REMARK   51  A    between atoms: _116  and  _117
REMARK   52  A    between atoms: _117  and  _118
REMARK   53  A    between atoms: _118  and  _119
REMARK   54  A    between atoms: _119  and  _120
REMARK   55  A    between atoms: _124  and  _126
REMARK   56  A    between atoms: _126  and  _127
REMARK   57  A    between atoms: _126  and  _129
REMARK   58  A    between atoms: _132  and  _134
REMARK   59  A    between atoms: _134  and  _135
REMARK   60  A    between atoms: _134  and  _137
REMARK   61  A    between atoms: _140  and  _142
REMARK   62  A    between atoms: _142  and  _143
REMARK   63  A    between atoms: _146  and  _148
REMARK   64  A    between atoms: _148  and  _149
REMARK   65  A    between atoms: _148  and  _151
REMARK   66  A    between atoms: _151  and  _152
REMARK   67  A    between atoms: _155  and  _157
REMARK   68  A    between atoms: _157  and  _158
REMARK   69  A    between atoms: _157  and  _160
REMARK   70  A    between atoms: _160  and  _161
REMARK   71  A    between atoms: _161  and  _162
REMARK   72  A    between atoms: _162  and  _163
REMARK   73  A    between atoms: _163  and  _164
REMARK   74  A    between atoms: _168  and  _170
REMARK   75  A    between atoms: _170  and  _171
REMARK   76  A    between atoms: _170  and  _173
REMARK   77  A    between atoms: _173  and  _174
REMARK   78  A    between atoms: _174  and  _175
REMARK   79  A    between atoms: _175  and  _176
REMARK   80  A    between atoms: _176  and  _177
REMARK   81  A    between atoms: _181  and  _183
REMARK   82  A    between atoms: _183  and  _184
REMARK   83  A    between atoms: _183  and  _186
REMARK   84  A    between atoms: _186  and  _187
REMARK   85  A    between atoms: _190  and  _192
REMARK   86  A    between atoms: _192  and  _193
REMARK   87  A    between atoms: _192  and  _195
REMARK   88  A    between atoms: _198  and  _200
REMARK   89  A    between atoms: _200  and  _201
REMARK   90  A    between atoms: _200  and  _203
REMARK   91  A    between atoms: _203  and  _204
REMARK   92  A    between atoms: _204  and  _205
REMARK   93  A    between atoms: _205  and  _206
REMARK   94  A    between atoms: _206  and  _207
REMARK   95  A    between atoms: _211  and  _213
REMARK   96  A    between atoms: _213  and  _214
REMARK   97  A    between atoms: _213  and  _216
REMARK   98  A    between atoms: _216  and  _217
REMARK   99  A    between atoms: _220  and  _222
REMARK  100  A    between atoms: _222  and  _223
REMARK  101  A    between atoms: _222  and  _225
REMARK  102  A    between atoms: _225  and  _226
REMARK  103  A    between atoms: _229  and  _231
REMARK  104  A    between atoms: _231  and  _232
REMARK  105  A    between atoms: _231  and  _234
REMARK  106  A    between atoms: _234  and  _235
REMARK  107  A    between atoms: _238  and  _240
REMARK  108  A    between atoms: _240  and  _241
REMARK  109  A    between atoms: _240  and  _243
REMARK  110  A    between atoms: _246  and  _248
REMARK  111  A    between atoms: _248  and  _249
REMARK  112  A    between atoms: _248  and  _251
REMARK  113  A    between atoms: _251  and  _252
REMARK  114  A    between atoms: _258  and  _260
REMARK  115  A    between atoms: _260  and  _261
REMARK  116  A    between atoms: _260  and  _263
REMARK  117  A    between atoms: _263  and  _264
REMARK  118  A    between atoms: _264  and  _265
REMARK  119  A    between atoms: _268  and  _270
REMARK  120  A    between atoms: _270  and  _271
REMARK  121  A    between atoms: _270  and  _273
REMARK  122  A    between atoms: _273  and  _274
REMARK  123  A    between atoms: _280  and  _282
REMARK  124  A    between atoms: _282  and  _283
REMARK  125  A    between atoms: _282  and  _285
REMARK  126  A    between atoms: _285  and  _286
REMARK  127  A    between atoms: _289  and  _291
REMARK  128  A    between atoms: _291  and  _292
REMARK  129  A    between atoms: _291  and  _294
REMARK  130  A    between atoms: _294  and  _295
REMARK  131  A    between atoms: _300  and  _302
REMARK  132  A    between atoms: _302  and  _303
REMARK  133  A    between atoms: _302  and  _305
REMARK  134  A    between atoms: _305  and  _306
REMARK  135  A    between atoms: _306  and  _307
REMARK  136  A    between atoms: _312  and  _314
REMARK  137  A    between atoms: _314  and  _315
REMARK  138  A    between atoms: _314  and  _317
REMARK  139  A    between atoms: _317  and  _318
REMARK  140  A    between atoms: _321  and  _323
REMARK  141  A    between atoms: _323  and  _324
REMARK  142  A    between atoms: _323  and  _326
REMARK  143  A    between atoms: _326  and  _327
REMARK  144  A    between atoms: _330  and  _332
REMARK  145  A    between atoms: _332  and  _333
REMARK  146  A    between atoms: _332  and  _335
REMARK  147  A    between atoms: _335  and  _336
REMARK  148  A    between atoms: _336  and  _337
REMARK  149  A    between atoms: _337  and  _338
REMARK  150  A    between atoms: _338  and  _339
REMARK  151  A    between atoms: _343  and  _345
REMARK  152  A    between atoms: _345  and  _346
REMARK  153  A    between atoms: _345  and  _348
REMARK  154  A    between atoms: _348  and  _349
REMARK  155  A    between atoms: _349  and  _350
REMARK  156  A    between atoms: _350  and  _351
REMARK  157  A    between atoms: _351  and  _352
REMARK  158  A    between atoms: _356  and  _358
REMARK  159  A    between atoms: _358  and  _359
REMARK  160  A    between atoms: _358  and  _361
REMARK  161  A    between atoms: _361  and  _362
REMARK  162  A    between atoms: _368  and  _370
REMARK  163  A    between atoms: _370  and  _371
REMARK  164  A    between atoms: _370  and  _373
REMARK  165  A    between atoms: _373  and  _374
REMARK  166  A    between atoms: _377  and  _379
REMARK  167  A    between atoms: _379  and  _380
REMARK  168  A    between atoms: _379  and  _382
REMARK  169  A    between atoms: _382  and  _383
REMARK  170  A    between atoms: _388  and  _390
REMARK  171  A    between atoms: _390  and  _391
REMARK  172  A    between atoms: _390  and  _393
REMARK  173  A    between atoms: _393  and  _394
REMARK  174  A    between atoms: _394  and  _395
REMARK  175  A    between atoms: _395  and  _396
REMARK  176  A    between atoms: _396  and  _397
REMARK  177  A    between atoms: _402  and  _403
REMARK  178  A    between atoms: _408  and  _410
REMARK  179  A    between atoms: _410  and  _411
REMARK  180  A    between atoms: _410  and  _413
REMARK  181  A    between atoms: _413  and  _414
REMARK  182  A    between atoms: _414  and  _415
REMARK  183  A    between atoms: _420  and  _422
REMARK  184  A    between atoms: _422  and  _423
REMARK  185  A    between atoms: _422  and  _425
REMARK  186  A    between atoms: _425  and  _426
REMARK  187  A    between atoms: _431  and  _433
REMARK  188  A    between atoms: _433  and  _434
REMARK  189  A    between atoms: _433  and  _436
REMARK  190  A    between atoms: _436  and  _437
REMARK  191  A    between atoms: _440  and  _442
REMARK  192  A    between atoms: _442  and  _443
REMARK  193  A    between atoms: _442  and  _445
REMARK  194  A    between atoms: _445  and  _446
REMARK  195  A    between atoms: _449  and  _451
REMARK  196  A    between atoms: _451  and  _452
REMARK  197  A    between atoms: _451  and  _454
REMARK  198  A    between atoms: _454  and  _455
REMARK  199  A    between atoms: _458  and  _460
REMARK  200  A    between atoms: _460  and  _461
REMARK  201  A    between atoms: _460  and  _463
REMARK  202  A    between atoms: _463  and  _464
REMARK  203  A    between atoms: _464  and  _465
REMARK  204  A    between atoms: _465  and  _466
REMARK  205  A    between atoms: _466  and  _467
REMARK  206  A    between atoms: _471  and  _473
REMARK  207  A    between atoms: _473  and  _474
REMARK  208  A    between atoms: _473  and  _476
REMARK  209  A    between atoms: _476  and  _477
REMARK  210  A    between atoms: _480  and  _482
REMARK  211  A    between atoms: _482  and  _483
REMARK  212  A    between atoms: _486  and  _488
REMARK  213  A    between atoms: _488  and  _489
REMARK  214  A    between atoms: _488  and  _491
REMARK  215  A    between atoms: _491  and  _492
REMARK  216  A    between atoms: _495  and  _497
REMARK  217  A    between atoms: _497  and  _498
REMARK  218  A    between atoms: _497  and  _500
REMARK  219  A    between atoms: _500  and  _501
REMARK  220  A    between atoms: _507  and  _509
REMARK  221  A    between atoms: _509  and  _510
REMARK  222  A    between atoms: _509  and  _512
REMARK  223  A    between atoms: _512  and  _513
REMARK  224  A    between atoms: _516  and  _518
REMARK  225  A    between atoms: _518  and  _519
REMARK  226  A    between atoms: _518  and  _521
REMARK  227  A    between atoms: _521  and  _522
REMARK                            x       y       z     vdW  Elec       q    Type
REMARK                         _______ _______ _______ _____ _____    ______ ____
ROOT
ATOM      1  O   HOH     1      19.174  25.342  27.622  0.00  0.00    +0.000 OA
ENDROOT
TORSDOF 0
REMARK  Name = ../refined-set-2016/2xnb/2xnb_pocket.pdb
REMARK  227 active torsions:
REMARK  status: ('A' for Active; 'I' for Inactive)
REMARK    1  A    between atoms: _1  and  _3
REMARK    2  A    between atoms: _3  and  _4
REMARK    3  A    between atoms: _3  and  _6
REMARK    4  A    between atoms: _6  and  _7
REMARK    5  A    between atoms: _7  and  _8
REMARK    6  A    between atoms: _11  and  _13
REMARK    7  A    between atoms: _13  and  _14
REMARK    8  A    between atoms: _13  and  _16
REMARK    9  A    between atoms: _16  and  _17
REMARK   10  A    between atoms: _17  and  _18
REMARK   11  A    between atoms: _18  and  _19
REMARK   12  A    between atoms: _19  and  _20
REMARK   13  A    between atoms: _24  and  _26
REMARK   14  A    between atoms: _26  and  _27
REMARK   15  A    between atoms: _26  and  _29
REMARK   16  A    between atoms: _29  and  _30
REMARK   17  A    between atoms: _33  and  _35
REMARK   18  A    between atoms: _35  and  _36
REMARK   19  A    between atoms: _38  and  _40
REMARK   20  A    between atoms: _40  and  _41
REMARK   21  A    between atoms: _40  and  _43
REMARK   22  A    between atoms: _43  and  _44
REMARK   23  A    between atoms: _44  and  _45
REMARK   24  A    between atoms: _48  and  _50
REMARK   25  A    between atoms: _50  and  _51
REMARK   26  A    between atoms: _53  and  _55
REMARK   27  A    between atoms: _55  and  _56
REMARK   28  A    between atoms: _55  and  _58
REMARK   29  A    between atoms: _58  and  _59
REMARK   30  A    between atoms: _62  and  _64
REMARK   31  A    between atoms: _64  and  _65
REMARK   32  A    between atoms: _64  and  _67
REMARK   33  A    between atoms: _67  and  _68
REMARK   34  A    between atoms: _73  and  _74
REMARK   35  A    between atoms: _76  and  _78
REMARK   36  A    between atoms: _78  and  _79
REMARK   37  A    between atoms: _81  and  _83
REMARK   38  A    between atoms: _83  and  _84
REMARK   39  A    between atoms: _83  and  _86
REMARK   40  A    between atoms: _89  and  _91
REMARK   41  A    between atoms: _91  and  _92
REMARK   42  A    between atoms: _91  and  _94
REMARK   43  A    between atoms: _97  and  _99
REMARK   44  A    between atoms: _99  and  _100
REMARK   45  A    between atoms: _99  and  _102
REMARK   46  A    between atoms: _102  and  _103
REMARK   47  A    between atoms: _108  and  _109
REMARK   48  A    between atoms: _111  and  _113
REMARK   49  A    between atoms: _113  and  _114
REMARK   50  A    between atoms: _113  and  _116
REMARK   51  A    between atoms: _116  and  _117
REMARK   52  A    between atoms: _117  and  _118
REMARK   53  A    between atoms: _118  and  _119
REMARK   54  A    between atoms: _119  and  _120
REMARK   55  A    between atoms: _124  and  _126
REMARK   56  A    between atoms: _126  and  _127
REMARK   57  A    between atoms: _126  and  _129
REMARK   58  A    between atoms: _132  and  _134
REMARK   59  A    between atoms: _134  and  _135
REMARK   60  A    between atoms: _134  and  _137
REMARK   61  A    between atoms: _140  and  _142
REMARK   62  A    between atoms: _142  and  _143
REMARK   63  A    between atoms: _146  and  _148
REMARK   64  A    between atoms: _148  and  _149
REMARK   65  A    between atoms: _148  and  _151
REMARK   66  A    between atoms: _151  and  _152
REMARK   67  A    between atoms: _155  and  _157
REMARK   68  A    between atoms: _157  and  _158
REMARK   69  A    between atoms: _157  and  _160
REMARK   70  A    between atoms: _160  and  _161
REMARK   71  A    between atoms: _161  and  _162
REMARK   72  A    between atoms: _162  and  _163
REMARK   73  A    between atoms: _163  and  _164
REMARK   74  A    between atoms: _168  and  _170
REMARK   75  A    between atoms: _170  and  _171
REMARK   76  A    between atoms: _170  and  _173
REMARK   77  A    between atoms: _173  and  _174
REMARK   78  A    between atoms: _174  and  _175
REMARK   79  A    between atoms: _175  and  _176
REMARK   80  A    between atoms: _176  and  _177
REMARK   81  A    between atoms: _181  and  _183
REMARK   82  A    between atoms: _183  and  _184
REMARK   83  A    between atoms: _183  and  _186
REMARK   84  A    between atoms: _186  and  _187
REMARK   85  A    between atoms: _190  and  _192
REMARK   86  A    between atoms: _192  and  _193
REMARK   87  A    between atoms: _192  and  _195
REMARK   88  A    between atoms: _198  and  _200
REMARK   89  A    between atoms: _200  and  _201
REMARK   90  A    between atoms: _200  and  _203
REMARK   91  A    between atoms: _203  and  _204
REMARK   92  A    between atoms: _204  and  _205
REMARK   93  A    between atoms: _205  and  _206
REMARK   94  A    between atoms: _206  and  _207
REMARK   95  A    between atoms: _211  and  _213
REMARK   96  A    between atoms: _213  and  _214
REMARK   97  A    between atoms: _213  and  _216
REMARK   98  A    between atoms: _216  and  _217
REMARK   99  A    between atoms: _220  and  _222
REMARK  100  A    between atoms: _222  and  _223
REMARK  101  A    between atoms: _222  and  _225
REMARK  102  A    between atoms: _225  and  _226
REMARK  103  A    between atoms: _229  and  _231
REMARK  104  A    between atoms: _231  and  _232
REMARK  105  A    between atoms: _231  and  _234
REMARK  106  A    between atoms: _234  and  _235
REMARK  107  A    between atoms: _238  and  _240
REMARK  108  A    between atoms: _240  and  _241
REMARK  109  A    between atoms: _240  and  _243
REMARK  110  A    between atoms: _246  and  _248
REMARK  111  A    between atoms: _248  and  _249
REMARK  112  A    between atoms: _248  and  _251
REMARK  113  A    between atoms: _251  and  _252
REMARK  114  A    between atoms: _258  and  _260
REMARK  115  A    between atoms: _260  and  _261
REMARK  116  A    between atoms: _260  and  _263
REMARK  117  A    between atoms: _263  and  _264
REMARK  118  A    between atoms: _264  and  _265
REMARK  119  A    between atoms: _268  and  _270
REMARK  120  A    between atoms: _270  and  _271
REMARK  121  A    between atoms: _270  and  _273
REMARK  122  A    between atoms: _273  and  _274
REMARK  123  A    between atoms: _280  and  _282
REMARK  124  A    between atoms: _282  and  _283
REMARK  125  A    between atoms: _282  and  _285
REMARK  126  A    between atoms: _285  and  _286
REMARK  127  A    between atoms: _289  and  _291
REMARK  128  A    between atoms: _291  and  _292
REMARK  129  A    between atoms: _291  and  _294
REMARK  130  A    between atoms: _294  and  _295
REMARK  131  A    between atoms: _300  and  _302
REMARK  132  A    between atoms: _302  and  _303
REMARK  133  A    between atoms: _302  and  _305
REMARK  134  A    between atoms: _305  and  _306
REMARK  135  A    between atoms: _306  and  _307
REMARK  136  A    between atoms: _312  and  _314
REMARK  137  A    between atoms: _314  and  _315
REMARK  138  A    between atoms: _314  and  _317
REMARK  139  A    between atoms: _317  and  _318
REMARK  140  A    between atoms: _321  and  _323
REMARK  141  A    between atoms: _323  and  _324
REMARK  142  A    between atoms: _323  and  _326
REMARK  143  A    between atoms: _326  and  _327
REMARK  144  A    between atoms: _330  and  _332
REMARK  145  A    between atoms: _332  and  _333
REMARK  146  A    between atoms: _332  and  _335
REMARK  147  A    between atoms: _335  and  _336
REMARK  148  A    between atoms: _336  and  _337
REMARK  149  A    between atoms: _337  and  _338
REMARK  150  A    between atoms: _338  and  _339
REMARK  151  A    between atoms: _343  and  _345
REMARK  152  A    between atoms: _345  and  _346
REMARK  153  A    between atoms: _345  and  _348
REMARK  154  A    between atoms: _348  and  _349
REMARK  155  A    between atoms: _349  and  _350
REMARK  156  A    between atoms: _350  and  _351
REMARK  157  A    between atoms: _351  and  _352
REMARK  158  A    between atoms: _356  and  _358
REMARK  159  A    between atoms: _358  and  _359
REMARK  160  A    between atoms: _358  and  _361
REMARK  161  A    between atoms: _361  and  _362
REMARK  162  A    between atoms: _368  and  _370
REMARK  163  A    between atoms: _370  and  _371
REMARK  164  A    between atoms: _370  and  _373
REMARK  165  A    between atoms: _373  and  _374
REMARK  166  A    between atoms: _377  and  _379
REMARK  167  A    between atoms: _379  and  _380
REMARK  168  A    between atoms: _379  and  _382
REMARK  169  A    between atoms: _382  and  _383
REMARK  170  A    between atoms: _388  and  _390
REMARK  171  A    between atoms: _390  and  _391
REMARK  172  A    between atoms: _390  and  _393
REMARK  173  A    between atoms: _393  and  _394
REMARK  174  A    between atoms: _394  and  _395
REMARK  175  A    between atoms: _395  and  _396
REMARK  176  A    between atoms: _396  and  _397
REMARK  177  A    between atoms: _402  and  _403
REMARK  178  A    between atoms: _408  and  _410
REMARK  179  A    between atoms: _410  and  _411
REMARK  180  A    between atoms: _410  and  _413
REMARK  181  A    between atoms: _413  and  _414
REMARK  182  A    between atoms: _414  and  _415
REMARK  183  A    between atoms: _420  and  _422
REMARK  184  A    between atoms: _422  and  _423
REMARK  185  A    between atoms: _422  and  _425
REMARK  186  A    between atoms: _425  and  _426
REMARK  187  A    between atoms: _431  and  _433
REMARK  188  A    between atoms: _433  and  _434
REMARK  189  A    between atoms: _433  and  _436
REMARK  190  A    between atoms: _436  and  _437
REMARK  191  A    between atoms: _440  and  _442
REMARK  192  A    between atoms: _442  and  _443
REMARK  193  A    between atoms: _442  and  _445
REMARK  194  A    between atoms: _445  and  _446
REMARK  195  A    between atoms: _449  and  _451
REMARK  196  A    between atoms: _451  and  _452
REMARK  197  A    between atoms: _451  and  _454
REMARK  198  A    between atoms: _454  and  _455
REMARK  199  A    between atoms: _458  and  _460
REMARK  200  A    between atoms: _460  and  _461
REMARK  201  A    between atoms: _460  and  _463
REMARK  202  A    between atoms: _463  and  _464
REMARK  203  A    between atoms: _464  and  _465
REMARK  204  A    between atoms: _465  and  _466
REMARK  205  A    between atoms: _466  and  _467
REMARK  206  A    between atoms: _471  and  _473
REMARK  207  A    between atoms: _473  and  _474
REMARK  208  A    between atoms: _473  and  _476
REMARK  209  A    between atoms: _476  and  _477
REMARK  210  A    between atoms: _480  and  _482
REMARK  211  A    between atoms: _482  and  _483
REMARK  212  A    between atoms: _486  and  _488
REMARK  213  A    between atoms: _488  and  _489
REMARK  214  A    between atoms: _488  and  _491
REMARK  215  A    between atoms: _491  and  _492
REMARK  216  A    between atoms: _495  and  _497
REMARK  217  A    between atoms: _497  and  _498
REMARK  218  A    between atoms: _497  and  _500
REMARK  219  A    between atoms: _500  and  _501
REMARK  220  A    between atoms: _507  and  _509
REMARK  221  A    between atoms: _509  and  _510
REMARK  222  A    between atoms: _509  and  _512
REMARK  223  A    between atoms: _512  and  _513
REMARK  224  A    between atoms: _516  and  _518
REMARK  225  A    between atoms: _518  and  _519
REMARK  226  A    between atoms: _518  and  _521
REMARK  227  A    between atoms: _521  and  _522
REMARK                            x       y       z     vdW  Elec       q    Type
REMARK                         _______ _______ _______ _____ _____    ______ ____
ROOT
ATOM      1  O   HOH     1      20.353  18.701  28.129  0.00  0.00    +0.000 OA
ENDROOT
TORSDOF 0
REMARK  Name = ../refined-set-2016/2xnb/2xnb_pocket.pdb
REMARK  227 active torsions:
REMARK  status: ('A' for Active; 'I' for Inactive)
REMARK    1  A    between atoms: _1  and  _3
REMARK    2  A    between atoms: _3  and  _4
REMARK    3  A    between atoms: _3  and  _6
REMARK    4  A    between atoms: _6  and  _7
REMARK    5  A    between atoms: _7  and  _8
REMARK    6  A    between atoms: _11  and  _13
REMARK    7  A    between atoms: _13  and  _14
REMARK    8  A    between atoms: _13  and  _16
REMARK    9  A    between atoms: _16  and  _17
REMARK   10  A    between atoms: _17  and  _18
REMARK   11  A    between atoms: _18  and  _19
REMARK   12  A    between atoms: _19  and  _20
REMARK   13  A    between atoms: _24  and  _26
REMARK   14  A    between atoms: _26  and  _27
REMARK   15  A    between atoms: _26  and  _29
REMARK   16  A    between atoms: _29  and  _30
REMARK   17  A    between atoms: _33  and  _35
REMARK   18  A    between atoms: _35  and  _36
REMARK   19  A    between atoms: _38  and  _40
REMARK   20  A    between atoms: _40  and  _41
REMARK   21  A    between atoms: _40  and  _43
REMARK   22  A    between atoms: _43  and  _44
REMARK   23  A    between atoms: _44  and  _45
REMARK   24  A    between atoms: _48  and  _50
REMARK   25  A    between atoms: _50  and  _51
REMARK   26  A    between atoms: _53  and  _55
REMARK   27  A    between atoms: _55  and  _56
REMARK   28  A    between atoms: _55  and  _58
REMARK   29  A    between atoms: _58  and  _59
REMARK   30  A    between atoms: _62  and  _64
REMARK   31  A    between atoms: _64  and  _65
REMARK   32  A    between atoms: _64  and  _67
REMARK   33  A    between atoms: _67  and  _68
REMARK   34  A    between atoms: _73  and  _74
REMARK   35  A    between atoms: _76  and  _78
REMARK   36  A    between atoms: _78  and  _79
REMARK   37  A    between atoms: _81  and  _83
REMARK   38  A    between atoms: _83  and  _84
REMARK   39  A    between atoms: _83  and  _86
REMARK   40  A    between atoms: _89  and  _91
REMARK   41  A    between atoms: _91  and  _92
REMARK   42  A    between atoms: _91  and  _94
REMARK   43  A    between atoms: _97  and  _99
REMARK   44  A    between atoms: _99  and  _100
REMARK   45  A    between atoms: _99  and  _102
REMARK   46  A    between atoms: _102  and  _103
REMARK   47  A    between atoms: _108  and  _109
REMARK   48  A    between atoms: _111  and  _113
REMARK   49  A    between atoms: _113  and  _114
REMARK   50  A    between atoms: _113  and  _116
REMARK   51  A    between atoms: _116  and  _117
REMARK   52  A    between atoms: _117  and  _118
REMARK   53  A    between atoms: _118  and  _119
REMARK   54  A    between atoms: _119  and  _120
REMARK   55  A    between atoms: _124  and  _126
REMARK   56  A    between atoms: _126  and  _127
REMARK   57  A    between atoms: _126  and  _129
REMARK   58  A    between atoms: _132  and  _134
REMARK   59  A    between atoms: _134  and  _135
REMARK   60  A    between atoms: _134  and  _137
REMARK   61  A    between atoms: _140  and  _142
REMARK   62  A    between atoms: _142  and  _143
REMARK   63  A    between atoms: _146  and  _148
REMARK   64  A    between atoms: _148  and  _149
REMARK   65  A    between atoms: _148  and  _151
REMARK   66  A    between atoms: _151  and  _152
REMARK   67  A    between atoms: _155  and  _157
REMARK   68  A    between atoms: _157  and  _158
REMARK   69  A    between atoms: _157  and  _160
REMARK   70  A    between atoms: _160  and  _161
REMARK   71  A    between atoms: _161  and  _162
REMARK   72  A    between atoms: _162  and  _163
REMARK   73  A    between atoms: _163  and  _164
REMARK   74  A    between atoms: _168  and  _170
REMARK   75  A    between atoms: _170  and  _171
REMARK   76  A    between atoms: _170  and  _173
REMARK   77  A    between atoms: _173  and  _174
REMARK   78  A    between atoms: _174  and  _175
REMARK   79  A    between atoms: _175  and  _176
REMARK   80  A    between atoms: _176  and  _177
REMARK   81  A    between atoms: _181  and  _183
REMARK   82  A    between atoms: _183  and  _184
REMARK   83  A    between atoms: _183  and  _186
REMARK   84  A    between atoms: _186  and  _187
REMARK   85  A    between atoms: _190  and  _192
REMARK   86  A    between atoms: _192  and  _193
REMARK   87  A    between atoms: _192  and  _195
REMARK   88  A    between atoms: _198  and  _200
REMARK   89  A    between atoms: _200  and  _201
REMARK   90  A    between atoms: _200  and  _203
REMARK   91  A    between atoms: _203  and  _204
REMARK   92  A    between atoms: _204  and  _205
REMARK   93  A    between atoms: _205  and  _206
REMARK   94  A    between atoms: _206  and  _207
REMARK   95  A    between atoms: _211  and  _213
REMARK   96  A    between atoms: _213  and  _214
REMARK   97  A    between atoms: _213  and  _216
REMARK   98  A    between atoms: _216  and  _217
REMARK   99  A    between atoms: _220  and  _222
REMARK  100  A    between atoms: _222  and  _223
REMARK  101  A    between atoms: _222  and  _225
REMARK  102  A    between atoms: _225  and  _226
REMARK  103  A    between atoms: _229  and  _231
REMARK  104  A    between atoms: _231  and  _232
REMARK  105  A    between atoms: _231  and  _234
REMARK  106  A    between atoms: _234  and  _235
REMARK  107  A    between atoms: _238  and  _240
REMARK  108  A    between atoms: _240  and  _241
REMARK  109  A    between atoms: _240  and  _243
REMARK  110  A    between atoms: _246  and  _248
REMARK  111  A    between atoms: _248  and  _249
REMARK  112  A    between atoms: _248  and  _251
REMARK  113  A    between atoms: _251  and  _252
REMARK  114  A    between atoms: _258  and  _260
REMARK  115  A    between atoms: _260  and  _261
REMARK  116  A    between atoms: _260  and  _263
REMARK  117  A    between atoms: _263  and  _264
REMARK  118  A    between atoms: _264  and  _265
REMARK  119  A    between atoms: _268  and  _270
REMARK  120  A    between atoms: _270  and  _271
REMARK  121  A    between atoms: _270  and  _273
REMARK  122  A    between atoms: _273  and  _274
REMARK  123  A    between atoms: _280  and  _282
REMARK  124  A    between atoms: _282  and  _283
REMARK  125  A    between atoms: _282  and  _285
REMARK  126  A    between atoms: _285  and  _286
REMARK  127  A    between atoms: _289  and  _291
REMARK  128  A    between atoms: _291  and  _292
REMARK  129  A    between atoms: _291  and  _294
REMARK  130  A    between atoms: _294  and  _295
REMARK  131  A    between atoms: _300  and  _302
REMARK  132  A    between atoms: _302  and  _303
REMARK  133  A    between atoms: _302  and  _305
REMARK  134  A    between atoms: _305  and  _306
REMARK  135  A    between atoms: _306  and  _307
REMARK  136  A    between atoms: _312  and  _314
REMARK  137  A    between atoms: _314  and  _315
REMARK  138  A    between atoms: _314  and  _317
REMARK  139  A    between atoms: _317  and  _318
REMARK  140  A    between atoms: _321  and  _323
REMARK  141  A    between atoms: _323  and  _324
REMARK  142  A    between atoms: _323  and  _326
REMARK  143  A    between atoms: _326  and  _327
REMARK  144  A    between atoms: _330  and  _332
REMARK  145  A    between atoms: _332  and  _333
REMARK  146  A    between atoms: _332  and  _335
REMARK  147  A    between atoms: _335  and  _336
REMARK  148  A    between atoms: _336  and  _337
REMARK  149  A    between atoms: _337  and  _338
REMARK  150  A    between atoms: _338  and  _339
REMARK  151  A    between atoms: _343  and  _345
REMARK  152  A    between atoms: _345  and  _346
REMARK  153  A    between atoms: _345  and  _348
REMARK  154  A    between atoms: _348  and  _349
REMARK  155  A    between atoms: _349  and  _350
REMARK  156  A    between atoms: _350  and  _351
REMARK  157  A    between atoms: _351  and  _352
REMARK  158  A    between atoms: _356  and  _358
REMARK  159  A    between atoms: _358  and  _359
REMARK  160  A    between atoms: _358  and  _361
REMARK  161  A    between atoms: _361  and  _362
REMARK  162  A    between atoms: _368  and  _370
REMARK  163  A    between atoms: _370  and  _371
REMARK  164  A    between atoms: _370  and  _373
REMARK  165  A    between atoms: _373  and  _374
REMARK  166  A    between atoms: _377  and  _379
REMARK  167  A    between atoms: _379  and  _380
REMARK  168  A    between atoms: _379  and  _382
REMARK  169  A    between atoms: _382  and  _383
REMARK  170  A    between atoms: _388  and  _390
REMARK  171  A    between atoms: _390  and  _391
REMARK  172  A    between atoms: _390  and  _393
REMARK  173  A    between atoms: _393  and  _394
REMARK  174  A    between atoms: _394  and  _395
REMARK  175  A    between atoms: _395  and  _396
REMARK  176  A    between atoms: _396  and  _397
REMARK  177  A    between atoms: _402  and  _403
REMARK  178  A    between atoms: _408  and  _410
REMARK  179  A    between atoms: _410  and  _411
REMARK  180  A    between atoms: _410  and  _413
REMARK  181  A    between atoms: _413  and  _414
REMARK  182  A    between atoms: _414  and  _415
REMARK  183  A    between atoms: _420  and  _422
REMARK  184  A    between atoms: _422  and  _423
REMARK  185  A    between atoms: _422  and  _425
REMARK  186  A    between atoms: _425  and  _426
REMARK  187  A    between atoms: _431  and  _433
REMARK  188  A    between atoms: _433  and  _434
REMARK  189  A    between atoms: _433  and  _436
REMARK  190  A    between atoms: _436  and  _437
REMARK  191  A    between atoms: _440  and  _442
REMARK  192  A    between atoms: _442  and  _443
REMARK  193  A    between atoms: _442  and  _445
REMARK  194  A    between atoms: _445  and  _446
REMARK  195  A    between atoms: _449  and  _451
REMARK  196  A    between atoms: _451  and  _452
REMARK  197  A    between atoms: _451  and  _454
REMARK  198  A    between atoms: _454  and  _455
REMARK  199  A    between atoms: _458  and  _460
REMARK  200  A    between atoms: _460  and  _461
REMARK  201  A    between atoms: _460  and  _463
REMARK  202  A    between atoms: _463  and  _464
REMARK  203  A    between atoms: _464  and  _465
REMARK  204  A    between atoms: _465  and  _466
REMARK  205  A    between atoms: _466  and  _467
REMARK  206  A    between atoms: _471  and  _473
REMARK  207  A    between atoms: _473  and  _474
REMARK  208  A    between atoms: _473  and  _476
REMARK  209  A    between atoms: _476  and  _477
REMARK  210  A    between atoms: _480  and  _482
REMARK  211  A    between atoms: _482  and  _483
REMARK  212  A    between atoms: _486  and  _488
REMARK  213  A    between atoms: _488  and  _489
REMARK  214  A    between atoms: _488  and  _491
REMARK  215  A    between atoms: _491  and  _492
REMARK  216  A    between atoms: _495  and  _497
REMARK  217  A    between atoms: _497  and  _498
REMARK  218  A    between atoms: _497  and  _500
REMARK  219  A    between atoms: _500  and  _501
REMARK  220  A    between atoms: _507  and  _509
REMARK  221  A    between atoms: _509  and  _510
REMARK  222  A    between atoms: _509  and  _512
REMARK  223  A    between atoms: _512  and  _513
REMARK  224  A    between atoms: _516  and  _518
REMARK  225  A    between atoms: _518  and  _519
REMARK  226  A    between atoms: _518  and  _521
REMARK  227  A    between atoms: _521  and  _522
REMARK                            x       y       z     vdW  Elec       q    Type
REMARK                         _______ _______ _______ _____ _____    ______ ____
ROOT
ATOM      1  O   HOH     1      23.979  18.748  27.136  0.00  0.00    +0.000 OA
ENDROOT
TORSDOF 0
