REMARK  Name = ../refined-set-2016/1cgl/1cgl_pocket.pdb
REMARK  177 active torsions:
REMARK  status: ('A' for Active; 'I' for Inactive)
REMARK    1  A    between atoms: _1  and  _3
REMARK    2  A    between atoms: _3  and  _4
REMARK    3  A    between atoms: _3  and  _6
REMARK    4  A    between atoms: _6  and  _7
REMARK    5  A    between atoms: _11  and  ZN_430
REMARK    6  A    between atoms: _12  and  _14
REMARK    7  A    between atoms: _14  and  _15
REMARK    8  A    between atoms: _14  and  _17
REMARK    9  A    between atoms: _17  and  _18
REMARK   10  A    between atoms: _18  and  _20
REMARK   11  A    between atoms: _20  and  ZN_430
REMARK   12  A    between atoms: _21  and  _23
REMARK   13  A    between atoms: _23  and  _24
REMARK   14  A    between atoms: _23  and  _26
REMARK   15  A    between atoms: _26  and  _27
REMARK   16  A    between atoms: _32  and  _34
REMARK   17  A    between atoms: _34  and  _35
REMARK   18  A    between atoms: _34  and  _37
REMARK   19  A    between atoms: _37  and  _38
REMARK   20  A    between atoms: _41  and  _42
REMARK   21  A    between atoms: _47  and  _49
REMARK   22  A    between atoms: _49  and  _50
REMARK   23  A    between atoms: _49  and  _52
REMARK   24  A    between atoms: _52  and  _53
REMARK   25  A    between atoms: _59  and  _61
REMARK   26  A    between atoms: _61  and  _62
REMARK   27  A    between atoms: _61  and  _64
REMARK   28  A    between atoms: _64  and  _65
REMARK   29  A    between atoms: _68  and  _70
REMARK   30  A    between atoms: _70  and  _71
REMARK   31  A    between atoms: _73  and  _75
REMARK   32  A    between atoms: _75  and  _76
REMARK   33  A    between atoms: _78  and  _80
REMARK   34  A    between atoms: _80  and  _81
REMARK   35  A    between atoms: _80  and  _83
REMARK   36  A    between atoms: _83  and  _84
REMARK   37  A    between atoms: _89  and  _91
REMARK   38  A    between atoms: _91  and  _92
REMARK   39  A    between atoms: _91  and  _94
REMARK   40  A    between atoms: _94  and  _95
REMARK   41  A    between atoms: _98  and  _100
REMARK   42  A    between atoms: _100  and  _101
REMARK   43  A    between atoms: _104  and  _106
REMARK   44  A    between atoms: _106  and  _107
REMARK   45  A    between atoms: _106  and  _109
REMARK   46  A    between atoms: _109  and  _110
REMARK   47  A    between atoms: _114  and  ZN_430
REMARK   48  A    between atoms: _115  and  _117
REMARK   49  A    between atoms: _117  and  _118
REMARK   50  A    between atoms: _121  and  _123
REMARK   51  A    between atoms: _123  and  _124
REMARK   52  A    between atoms: _123  and  _126
REMARK   53  A    between atoms: _126  and  _127
REMARK   54  A    between atoms: _133  and  _135
REMARK   55  A    between atoms: _135  and  _136
REMARK   56  A    between atoms: _135  and  _138
REMARK   57  A    between atoms: _138  and  _139
REMARK   58  A    between atoms: _142  and  _144
REMARK   59  A    between atoms: _144  and  _145
REMARK   60  A    between atoms: _144  and  _147
REMARK   61  A    between atoms: _147  and  _148
REMARK   62  A    between atoms: _151  and  _153
REMARK   63  A    between atoms: _153  and  _154
REMARK   64  A    between atoms: _153  and  _156
REMARK   65  A    between atoms: _156  and  _157
REMARK   66  A    between atoms: _160  and  _162
REMARK   67  A    between atoms: _162  and  _163
REMARK   68  A    between atoms: _162  and  _165
REMARK   69  A    between atoms: _165  and  _166
REMARK   70  A    between atoms: _167  and  ZN_430
REMARK   71  A    between atoms: _171  and  _173
REMARK   72  A    between atoms: _173  and  _174
REMARK   73  A    between atoms: _173  and  _176
REMARK   74  A    between atoms: _176  and  _177
REMARK   75  A    between atoms: _183  and  _185
REMARK   76  A    between atoms: _185  and  _186
REMARK   77  A    between atoms: _185  and  _188
REMARK   78  A    between atoms: _188  and  _189
REMARK   79  A    between atoms: _189  and  _191
REMARK   80  A    between atoms: _191  and  CA_431
REMARK   81  A    between atoms: _192  and  _194
REMARK   82  A    between atoms: _194  and  _195
REMARK   83  A    between atoms: _194  and  _197
REMARK   84  A    between atoms: _197  and  _198
REMARK   85  A    between atoms: _198  and  _199
REMARK   86  A    between atoms: _199  and  _201
REMARK   87  A    between atoms: _201  and  CA_431
REMARK   88  A    between atoms: _202  and  _204
REMARK   89  A    between atoms: _204  and  _205
REMARK   90  A    between atoms: _204  and  _207
REMARK   91  A    between atoms: _207  and  _208
REMARK   92  A    between atoms: _218  and  _220
REMARK   93  A    between atoms: _220  and  _221
REMARK   94  A    between atoms: _220  and  _223
REMARK   95  A    between atoms: _223  and  _224
REMARK   96  A    between atoms: _224  and  _225
REMARK   97  A    between atoms: _230  and  _231
REMARK   98  A    between atoms: _230  and  _233
REMARK   99  A    between atoms: _233  and  _234
REMARK  100  A    between atoms: _239  and  _240
REMARK  101  A    between atoms: _242  and  _244
REMARK  102  A    between atoms: _244  and  _245
REMARK  103  A    between atoms: _244  and  _247
REMARK  104  A    between atoms: _247  and  _248
REMARK  105  A    between atoms: _253  and  _255
REMARK  106  A    between atoms: _255  and  _256
REMARK  107  A    between atoms: _255  and  _258
REMARK  108  A    between atoms: _258  and  _259
REMARK  109  A    between atoms: _262  and  _264
REMARK  110  A    between atoms: _264  and  _265
REMARK  111  A    between atoms: _264  and  _267
REMARK  112  A    between atoms: _267  and  _268
REMARK  113  A    between atoms: _268  and  _269
REMARK  114  A    between atoms: _269  and  _270
REMARK  115  A    between atoms: _279  and  _281
REMARK  116  A    between atoms: _281  and  _282
REMARK  117  A    between atoms: _281  and  _284
REMARK  118  A    between atoms: _287  and  _289
REMARK  119  A    between atoms: _289  and  _290
REMARK  120  A    between atoms: _293  and  _295
REMARK  121  A    between atoms: _295  and  _296
REMARK  122  A    between atoms: _299  and  _301
REMARK  123  A    between atoms: _301  and  _302
REMARK  124  A    between atoms: _301  and  _304
REMARK  125  A    between atoms: _304  and  _305
REMARK  126  A    between atoms: _309  and  ZN_429
REMARK  127  A    between atoms: _310  and  _312
REMARK  128  A    between atoms: _312  and  _313
REMARK  129  A    between atoms: _312  and  _315
REMARK  130  A    between atoms: _315  and  _316
REMARK  131  A    between atoms: _316  and  _317
REMARK  132  A    between atoms: _320  and  _322
REMARK  133  A    between atoms: _322  and  _323
REMARK  134  A    between atoms: _322  and  _325
REMARK  135  A    between atoms: _325  and  _326
REMARK  136  A    between atoms: _330  and  ZN_429
REMARK  137  A    between atoms: _331  and  _333
REMARK  138  A    between atoms: _333  and  _334
REMARK  139  A    between atoms: _333  and  _336
REMARK  140  A    between atoms: _336  and  _337
REMARK  141  A    between atoms: _340  and  _342
REMARK  142  A    between atoms: _342  and  _343
REMARK  143  A    between atoms: _342  and  _345
REMARK  144  A    between atoms: _345  and  _346
REMARK  145  A    between atoms: _348  and  _350
REMARK  146  A    between atoms: _350  and  _351
REMARK  147  A    between atoms: _350  and  _353
REMARK  148  A    between atoms: _353  and  _354
REMARK  149  A    between atoms: _358  and  ZN_429
REMARK  150  A    between atoms: _359  and  _361
REMARK  151  A    between atoms: _361  and  _362
REMARK  152  A    between atoms: _361  and  _364
REMARK  153  A    between atoms: _364  and  _365
REMARK  154  A    between atoms: _368  and  _370
REMARK  155  A    between atoms: _370  and  _371
REMARK  156  A    between atoms: _370  and  _373
REMARK  157  A    between atoms: _373  and  _374
REMARK  158  A    between atoms: _374  and  _375
REMARK  159  A    between atoms: _377  and  _379
REMARK  160  A    between atoms: _379  and  _380
REMARK  161  A    between atoms: _379  and  _382
REMARK  162  A    between atoms: _382  and  _383
REMARK  163  A    between atoms: _388  and  _389
REMARK  164  A    between atoms: _392  and  _393
REMARK  165  A    between atoms: _398  and  _400
REMARK  166  A    between atoms: _400  and  _401
REMARK  167  A    between atoms: _400  and  _403
REMARK  168  A    between atoms: _403  and  _404
REMARK  169  A    between atoms: _406  and  _408
REMARK  170  A    between atoms: _408  and  _409
REMARK  171  A    between atoms: _408  and  _411
REMARK  172  A    between atoms: _411  and  _412
REMARK  173  A    between atoms: _417  and  _418
REMARK  174  A    between atoms: _420  and  _422
REMARK  175  A    between atoms: _422  and  _423
REMARK  176  A    between atoms: _422  and  _425
REMARK  177  A    between atoms: _425  and  _426
REMARK                            x       y       z     vdW  Elec       q    Type
REMARK                         _______ _______ _______ _____ _____    ______ ____
ROOT
ATOM      1 ZN   UNK A   1      33.208  45.136   8.339  0.00  0.00    +0.000 Zn
ENDROOT
BRANCH   1   5
ATOM      2  C   UNK A   1      31.128  44.626  11.801  0.00  0.00    +0.000 A 
ATOM      3  N   UNK A   1      29.979  44.677  11.044  0.00  0.00    +0.000 NA
ATOM      4  C   UNK A   1      30.323  44.791   9.747  0.00  0.00    +0.000 A 
ATOM      5  N   UNK A   1      31.633  44.812   9.607  0.00  0.00    +0.000 N 
ATOM      6  C   UNK A   1      32.152  44.706  10.915  0.00  0.00    +0.000 A 
BRANCH   2   7
ATOM      7  C   UNK A   1      31.143  44.490  13.294  0.00  0.00    +0.000 C 
BRANCH   7   8
ATOM      8  C   UNK A   1      30.719  45.769  14.057  0.00  0.00    +0.000 C 
BRANCH   8   9
ATOM      9  N   UNK A   1      29.505  46.321  13.479  0.00  0.00    +0.000 NA
ATOM     10  H   UNK A   1      29.514  46.627  12.485  0.00  0.00    +0.000 HD
ENDBRANCH   8   9
BRANCH   8  11
ATOM     11  C   UNK A   1      31.872  46.764  14.109  0.00  0.00    +0.000 C 
ATOM     12  O   UNK A   1      33.032  46.393  13.939  0.00  0.00    +0.000 OA
ENDBRANCH   8  11
ENDBRANCH   7   8
ENDBRANCH   2   7
ENDBRANCH   1   5
BRANCH   1  13
ATOM     13  N   UNK A   1      34.694  43.799   8.573  0.00  0.00    +0.000 N 
ATOM     14  C   UNK A   1      35.806  44.352   9.018  0.00  0.00    +0.000 A 
ATOM     15  N   UNK A   1      36.654  43.429   9.499  0.00  0.00    +0.000 NA
ATOM     16  C   UNK A   1      36.049  42.211   9.357  0.00  0.00    +0.000 A 
ATOM     17  C   UNK A   1      34.845  42.446   8.774  0.00  0.00    +0.000 A 
BRANCH  17  18
ATOM     18  C   UNK A   1      33.866  41.461   8.216  0.00  0.00    +0.000 C 
BRANCH  18  19
ATOM     19  C   UNK A   1      34.499  40.121   7.792  0.00  0.00    +0.000 C 
BRANCH  19  20
ATOM     20  C   UNK A   1      33.414  39.297   7.165  0.00  0.00    +0.000 C 
ATOM     21  N   GLY A   2      32.903  38.301   7.887  0.00  0.00    +0.000 N 
ATOM     22  H   GLY A   2      33.279  38.125   8.840  0.00  0.00    +0.000 HD
ATOM     23  O   UNK A   1      33.020  39.591   6.035  0.00  0.00    +0.000 OA
BRANCH  21  24
ATOM     24  CA  GLY A   2      31.832  37.450   7.381  0.00  0.00    +0.000 C 
BRANCH  24  25
ATOM     25  C   GLY A   2      30.590  37.647   8.224  0.00  0.00    +0.000 C 
ATOM     26  O   GLY A   2      30.639  37.564   9.442  0.00  0.00    +0.000 OA
ATOM     27  N   UNK A   3      29.473  37.902   7.568  0.00  0.00    +0.000 N 
ATOM     28  H   UNK A   3      29.500  37.942   6.529  0.00  0.00    +0.000 HD
BRANCH  27  29
ATOM     29  C   UNK A   3      28.211  38.128   8.244  0.00  0.00    +0.000 C 
BRANCH  29  30
ATOM     30  C   UNK A   3      27.852  36.830   8.977  0.00  0.00    +0.000 C 
ATOM     31  O   UNK A   3      27.696  35.777   8.373  0.00  0.00    +0.000 OA
ENDBRANCH  29  30
BRANCH  29  32
ATOM     32  C   UNK A   3      27.165  38.551   7.193  0.00  0.00    +0.000 C 
BRANCH  32  33
ATOM     33  C   UNK A   3      25.940  39.204   7.782  0.00  0.00    +0.000 C 
ATOM     34  O   UNK A   3      25.707  39.034   8.981  0.00  0.00    +0.000 OA
BRANCH  33  35
ATOM     35  O   UNK A   3      25.169  39.842   7.017  0.00  0.00    +0.000 OA
BRANCH  35  36
ATOM     36 CA   UNK A   3      23.836  39.462   5.703  0.00  0.00    +0.000 Ca
BRANCH  36  37
ATOM     37  O   UNK A   1      24.118  37.671   5.641  0.00  0.00    +0.000 OA
BRANCH  37  38
ATOM     38  C   UNK A   1      24.147  36.403   5.698  0.00  0.00    +0.000 C 
ATOM     39  O   UNK A   1      23.195  35.702   5.334  0.00  0.00    +0.000 OA
BRANCH  38  40
ATOM     40  C   UNK A   1      25.388  35.686   6.178  0.00  0.00    +0.000 C 
BRANCH  40  41
ATOM     41  C   UNK A   1      25.189  34.182   6.366  0.00  0.00    +0.000 C 
BRANCH  41  42
ATOM     42  C   UNK A   1      24.260  33.814   7.519  0.00  0.00    +0.000 C 
BRANCH  42  43
ATOM     43  C   UNK A   1      24.659  32.466   8.080  0.00  0.00    +0.000 C 
ATOM     44  O   UNK A   1      25.312  32.429   9.099  0.00  0.00    +0.000 OA
ENDBRANCH  42  43
BRANCH  42  45
ATOM     45  N   UNK A   1      24.445  34.761   8.616  0.00  0.00    +0.000 NA
ATOM     46  H   UNK A   1      25.373  35.215   8.735  0.00  0.00    +0.000 HD
ENDBRANCH  42  45
ENDBRANCH  41  42
ENDBRANCH  40  41
ENDBRANCH  38  40
ENDBRANCH  37  38
ENDBRANCH  36  37
ENDBRANCH  35  36
ENDBRANCH  33  35
ENDBRANCH  32  33
ENDBRANCH  29  32
ENDBRANCH  27  29
ENDBRANCH  24  25
BRANCH  24  47
ATOM     47  CB  GLY A   2      32.258  35.987   7.404  0.00  0.00    +0.000 C 
BRANCH  47  48
ATOM     48  CG  GLY A   2      33.415  35.678   6.497  0.00  0.00    +0.000 A 
ATOM     49  CD2 GLY A   2      34.720  35.731   6.963  0.00  0.00    +0.000 A 
ATOM     50  CE2 GLY A   2      35.791  35.433   6.135  0.00  0.00    +0.000 A 
ATOM     51  CZ  GLY A   2      35.575  35.080   4.839  0.00  0.00    +0.000 A 
ATOM     52  CE1 GLY A   2      34.276  35.026   4.356  0.00  0.00    +0.000 A 
ATOM     53  CD1 GLY A   2      33.205  35.323   5.181  0.00  0.00    +0.000 A 
ENDBRANCH  47  48
ENDBRANCH  24  47
ENDBRANCH  21  24
ENDBRANCH  19  20
BRANCH  19  54
ATOM     54  N   UNK A   1      35.539  40.344   6.797  0.00  0.00    +0.000 NA
ATOM     55  H   UNK A   1      35.303  40.904   5.953  0.00  0.00    +0.000 HD
ENDBRANCH  19  54
ENDBRANCH  18  19
ENDBRANCH  17  18
ENDBRANCH   1  13
BRANCH   1  56
ATOM     56  N   UNK A   1      32.542  44.681   6.276  0.00  0.00    +0.000 N 
ATOM     57  C   UNK A   1      31.323  44.993   5.880  0.00  0.00    +0.000 A 
ATOM     58  N   UNK A   1      31.111  44.622   4.615  0.00  0.00    +0.000 NA
ATOM     59  C   UNK A   1      32.260  44.029   4.153  0.00  0.00    +0.000 A 
ATOM     60  C   UNK A   1      33.133  44.073   5.191  0.00  0.00    +0.000 A 
BRANCH  59  61
ATOM     61  C   UNK A   1      32.428  43.521   2.751  0.00  0.00    +0.000 C 
BRANCH  61  62
ATOM     62  C   UNK A   1      33.170  42.174   2.628  0.00  0.00    +0.000 C 
BRANCH  62  63
ATOM     63  N   UNK A   1      32.485  41.085   3.322  0.00  0.00    +0.000 N 
ATOM     64  H   UNK A   1      32.971  40.610   4.110  0.00  0.00    +0.000 HD
ATOM     65  C   ALA A   5      31.268  40.679   2.986  0.00  0.00    +0.000 C 
ATOM     66  O   ALA A   5      30.557  41.278   2.182  0.00  0.00    +0.000 OA
BRANCH  65  67
ATOM     67  CA  ALA A   5      30.708  39.507   3.758  0.00  0.00    +0.000 C 
ATOM     68  CB  ALA A   5      31.616  38.285   3.593  0.00  0.00    +0.000 C 
BRANCH  67  69
ATOM     69  N   ALA A   5      29.381  39.217   3.241  0.00  0.00    +0.000 N 
ATOM     70  C   LEU A   4      28.594  38.352   3.846  0.00  0.00    +0.000 C 
ATOM     71  O   LEU A   4      28.945  37.713   4.813  0.00  0.00    +0.000 OA
ATOM     72  H   ALA A   5      29.049  39.699   2.382  0.00  0.00    +0.000 HD
BRANCH  70  73
ATOM     73  CA  LEU A   4      27.259  38.097   3.220  0.00  0.00    +0.000 C 
BRANCH  73  74
ATOM     74  N   LEU A   4      26.724  39.249   2.502  0.00  0.00    +0.000 N 
ATOM     75  C   UNK A   3      25.826  40.068   3.038  0.00  0.00    +0.000 C 
ATOM     76  O   UNK A   3      25.371  39.937   4.186  0.00  0.00    +0.000 OA
ATOM     77  H   LEU A   4      27.058  39.436   1.535  0.00  0.00    +0.000 HD
BRANCH  75  78
ATOM     78  C   UNK A   3      25.328  41.188   2.140  0.00  0.00    +0.000 C 
BRANCH  78  79
ATOM     79  N   UNK A   3      23.873  41.060   1.996  0.00  0.00    +0.000 N 
ATOM     80  H   UNK A   3      23.264  41.791   2.417  0.00  0.00    +0.000 HD
ATOM     81  C   GLY A   2      23.300  40.048   1.350  0.00  0.00    +0.000 C 
ATOM     82  O   GLY A   2      23.942  39.159   0.788  0.00  0.00    +0.000 OA
BRANCH  81  83
ATOM     83  CA  GLY A   2      21.786  40.054   1.291  0.00  0.00    +0.000 C 
BRANCH  83  84
ATOM     84  N   GLY A   2      21.134  38.871   1.820  0.00  0.00    +0.000 N 
ATOM     85  C   UNK A   1      21.393  38.419   3.044  0.00  0.00    +0.000 C 
ATOM     86  O   UNK A   1      22.216  38.944   3.815  0.00  0.00    +0.000 OA
ATOM     87  H   GLY A   2      20.447  38.363   1.227  0.00  0.00    +0.000 HD
BRANCH  85  88
ATOM     88  C   UNK A   1      20.620  37.189   3.458  0.00  0.00    +0.000 C 
BRANCH  88  89
ATOM     89  N   UNK A   1      20.832  36.818   4.843  0.00  0.00    +0.000 NA
ATOM     90  H   UNK A   1      21.562  36.113   5.069  0.00  0.00    +0.000 HD
ENDBRANCH  88  89
ENDBRANCH  85  88
ENDBRANCH  83  84
ENDBRANCH  81  83
ENDBRANCH  78  79
BRANCH  78  91
ATOM     91  C   UNK A   3      25.693  42.543   2.739  0.00  0.00    +0.000 C 
BRANCH  91  92
ATOM     92  C   UNK A   3      27.180  42.821   2.682  0.00  0.00    +0.000 C 
ATOM     93  N   UNK A   3      27.587  43.933   3.281  0.00  0.00    +0.000 N 
ATOM     94  H   UNK A   3      26.900  44.541   3.771  0.00  0.00    +0.000 HD
ATOM     95  H   UNK A   3      28.593  44.196   3.261  0.00  0.00    +0.000 HD
ATOM     96  O   UNK A   3      27.959  42.057   2.082  0.00  0.00    +0.000 OA
ENDBRANCH  91  92
ENDBRANCH  78  91
ENDBRANCH  75  78
ENDBRANCH  73  74
BRANCH  73  97
ATOM     97  CB  LEU A   4      27.429  36.893   2.293  0.00  0.00    +0.000 C 
BRANCH  97  98
ATOM     98  CG  LEU A   4      26.373  36.519   1.270  0.00  0.00    +0.000 C 
ATOM     99  CD2 LEU A   4      25.071  36.185   1.964  0.00  0.00    +0.000 C 
ATOM    100  CD1 LEU A   4      26.885  35.377   0.438  0.00  0.00    +0.000 C 
ENDBRANCH  97  98
ENDBRANCH  73  97
ENDBRANCH  70  73
ENDBRANCH  67  69
ENDBRANCH  65  67
ENDBRANCH  62  63
BRANCH  62 101
ATOM    101  C   UNK A   1      34.608  42.273   3.104  0.00  0.00    +0.000 C 
ATOM    102  O   UNK A   1      34.899  41.996   4.263  0.00  0.00    +0.000 OA
ATOM    103  N   ALA A   7      35.514  42.640   2.214  0.00  0.00    +0.000 N 
ATOM    104  H   ALA A   7      35.221  42.852   1.239  0.00  0.00    +0.000 HD
BRANCH 103 105
ATOM    105  CA  ALA A   7      36.905  42.750   2.582  0.00  0.00    +0.000 C 
ATOM    106  CB  ALA A   7      37.679  41.663   1.948  0.00  0.00    +0.000 C 
BRANCH 105 107
ATOM    107  C   ALA A   7      37.437  44.085   2.123  0.00  0.00    +0.000 C 
ATOM    108  N   PHE A   8      38.521  44.542   2.751  0.00  0.00    +0.000 N 
ATOM    109  H   PHE A   8      38.935  43.974   3.518  0.00  0.00    +0.000 HD
ATOM    110  O   ALA A   7      36.872  44.696   1.209  0.00  0.00    +0.000 OA
BRANCH 108 111
ATOM    111  CA  PHE A   8      39.148  45.820   2.395  0.00  0.00    +0.000 C 
BRANCH 111 112
ATOM    112  C   PHE A   8      40.375  45.572   1.523  0.00  0.00    +0.000 C 
ATOM    113  O   PHE A   8      41.090  44.571   1.707  0.00  0.00    +0.000 OA
ATOM    114  N   ASP A   9      40.615  46.476   0.577  0.00  0.00    +0.000 N 
ATOM    115  H   ASP A   9      39.969  47.284   0.472  0.00  0.00    +0.000 HD
BRANCH 114 116
ATOM    116  CA  ASP A   9      41.769  46.360  -0.321  0.00  0.00    +0.000 C 
BRANCH 116 117
ATOM    117  C   ASP A   9      43.088  46.559   0.432  0.00  0.00    +0.000 C 
ATOM    118  O   ASP A   9      43.115  47.142   1.520  0.00  0.00    +0.000 OA
ENDBRANCH 116 117
BRANCH 116 119
ATOM    119  CB  ASP A   9      41.644  47.334  -1.501  0.00  0.00    +0.000 C 
BRANCH 119 120
ATOM    120  CG  ASP A   9      40.571  46.909  -2.517  0.00  0.00    +0.000 C 
ATOM    121  OD2 ASP A   9      40.364  45.687  -2.757  0.00  0.00    +0.000 OA
ATOM    122  OD1 ASP A   9      39.938  47.826  -3.094  0.00  0.00    +0.000 OA
ENDBRANCH 119 120
ENDBRANCH 116 119
ENDBRANCH 114 116
ENDBRANCH 111 112
BRANCH 111 123
ATOM    123  CB  PHE A   8      39.575  46.583   3.647  0.00  0.00    +0.000 C 
BRANCH 123 124
ATOM    124  CG  PHE A   8      38.494  46.723   4.666  0.00  0.00    +0.000 A 
ATOM    125  CD2 PHE A   8      38.365  45.791   5.689  0.00  0.00    +0.000 A 
ATOM    126  CE2 PHE A   8      37.341  45.899   6.631  0.00  0.00    +0.000 A 
ATOM    127  CZ  PHE A   8      36.446  46.944   6.549  0.00  0.00    +0.000 A 
ATOM    128  CE1 PHE A   8      36.561  47.881   5.539  0.00  0.00    +0.000 A 
ATOM    129  CD1 PHE A   8      37.589  47.767   4.597  0.00  0.00    +0.000 A 
ENDBRANCH 123 124
ENDBRANCH 111 123
ENDBRANCH 108 111
ENDBRANCH 105 107
ENDBRANCH 103 105
ENDBRANCH  62 101
ENDBRANCH  61  62
ENDBRANCH  59  61
ENDBRANCH   1  56
BRANCH   1 130
ATOM    130  O   UNK A   1      34.389  47.029   8.454  0.00  0.00    +0.000 OA
BRANCH 130 131
ATOM    131  C   UNK A   1      33.733  47.690   9.297  0.00  0.00    +0.000 C 
ATOM    132  O   UNK A   1      32.466  47.669   9.313  0.00  0.00    +0.000 OA
BRANCH 131 133
ATOM    133  C   UNK A   1      34.531  48.440  10.370  0.00  0.00    +0.000 C 
BRANCH 133 134
ATOM    134  C   UNK A   1      33.834  49.725  10.895  0.00  0.00    +0.000 C 
BRANCH 134 135
ATOM    135  C   UNK A   1      33.097  50.518   9.820  0.00  0.00    +0.000 C 
ATOM    136  N   GLY A   2      32.044  51.194  10.266  0.00  0.00    +0.000 N 
ATOM    137  H   GLY A   2      31.806  51.102  11.274  0.00  0.00    +0.000 HD
ATOM    138  O   UNK A   1      33.482  50.545   8.654  0.00  0.00    +0.000 OA
BRANCH 136 139
ATOM    139  CA  GLY A   2      31.192  52.060   9.446  0.00  0.00    +0.000 C 
BRANCH 139 140
ATOM    140  C   GLY A   2      30.390  51.460   8.326  0.00  0.00    +0.000 C 
ATOM    141  N   UNK A   3      30.468  50.140   8.200  0.00  0.00    +0.000 N 
ATOM    142  H   UNK A   3      31.111  49.613   8.825  0.00  0.00    +0.000 HD
ATOM    143  O   GLY A   2      29.689  52.181   7.614  0.00  0.00    +0.000 OA
BRANCH 141 144
ATOM    144  C   UNK A   3      29.685  49.406   7.219  0.00  0.00    +0.000 C 
BRANCH 144 145
ATOM    145  C   UNK A   3      29.093  48.141   7.883  0.00  0.00    +0.000 C 
ATOM    146  N   LEU A   4      27.963  48.303   8.596  0.00  0.00    +0.000 N 
ATOM    147  CA  LEU A   4      27.251  47.233   9.299  0.00  0.00    +0.000 C 
ATOM    148  CB  LEU A   4      26.171  47.999  10.064  0.00  0.00    +0.000 C 
ATOM    149  CG  LEU A   4      25.911  49.172   9.206  0.00  0.00    +0.000 C 
ATOM    150  CD  LEU A   4      27.293  49.595   8.831  0.00  0.00    +0.000 C 
ATOM    151  O   UNK A   3      29.667  47.046   7.822  0.00  0.00    +0.000 OA
BRANCH 147 152
ATOM    152  C   LEU A   4      26.612  46.164   8.415  0.00  0.00    +0.000 C 
ATOM    153  N   ALA A   5      26.485  44.955   8.958  0.00  0.00    +0.000 N 
ATOM    154  H   ALA A   5      26.843  44.784   9.919  0.00  0.00    +0.000 HD
ATOM    155  O   LEU A   4      26.267  46.421   7.262  0.00  0.00    +0.000 OA
BRANCH 153 156
ATOM    156  CA  ALA A   5      25.854  43.873   8.226  0.00  0.00    +0.000 C 
BRANCH 156 157
ATOM    157  C   ALA A   5      24.346  43.953   8.405  0.00  0.00    +0.000 C 
ATOM    158  O   ALA A   5      23.834  44.511   9.395  0.00  0.00    +0.000 OA
ATOM    159  N   UNK A   6      23.660  43.356   7.435  0.00  0.00    +0.000 N 
ATOM    160  H   UNK A   6      24.197  42.830   6.717  0.00  0.00    +0.000 HD
BRANCH 159 161
ATOM    161  C   UNK A   6      22.213  43.387   7.308  0.00  0.00    +0.000 C 
BRANCH 161 162
ATOM    162  C   UNK A   6      21.373  42.233   7.853  0.00  0.00    +0.000 C 
ATOM    163  O   UNK A   6      20.140  42.224   7.696  0.00  0.00    +0.000 OA
ENDBRANCH 161 162
BRANCH 161 164
ATOM    164  C   UNK A   6      21.915  43.570   5.822  0.00  0.00    +0.000 C 
BRANCH 164 165
ATOM    165  C   UNK A   6      22.530  42.461   4.946  0.00  0.00    +0.000 C 
ATOM    166  O   UNK A   6      23.304  41.592   5.462  0.00  0.00    +0.000 OA
ATOM    167  O   UNK A   6      22.207  42.448   3.732  0.00  0.00    +0.000 OA
ENDBRANCH 164 165
ENDBRANCH 161 164
ENDBRANCH 159 161
ENDBRANCH 156 157
BRANCH 156 168
ATOM    168  CB  ALA A   5      26.418  42.490   8.577  0.00  0.00    +0.000 C 
BRANCH 168 169
ATOM    169  CG  ALA A   5      27.740  42.207   7.929  0.00  0.00    +0.000 A 
ATOM    170  CD2 ALA A   5      28.832  41.820   8.679  0.00  0.00    +0.000 A 
ATOM    171  CE2 ALA A   5      30.059  41.643   8.077  0.00  0.00    +0.000 A 
ATOM    172  CZ  ALA A   5      30.206  41.849   6.720  0.00  0.00    +0.000 A 
ATOM    173  CE1 ALA A   5      29.136  42.223   5.970  0.00  0.00    +0.000 A 
ATOM    174  CD1 ALA A   5      27.908  42.401   6.568  0.00  0.00    +0.000 A 
ENDBRANCH 168 169
ENDBRANCH 156 168
ENDBRANCH 153 156
ENDBRANCH 147 152
ENDBRANCH 144 145
BRANCH 144 175
ATOM    175  C   UNK A   3      30.520  49.105   5.974  0.00  0.00    +0.000 C 
BRANCH 175 176
ATOM    176  O   UNK A   3      30.667  50.280   5.171  0.00  0.00    +0.000 OA
ATOM    177  H   UNK A   3      31.209  50.066   4.371  0.00  0.00    +0.000 HD
ENDBRANCH 175 176
ENDBRANCH 144 175
ENDBRANCH 141 144
ENDBRANCH 139 140
BRANCH 139 178
ATOM    178  CB  GLY A   2      31.935  53.316   8.987  0.00  0.00    +0.000 C 
BRANCH 178 179
ATOM    179  CG  GLY A   2      32.137  54.295  10.123  0.00  0.00    +0.000 C 
ATOM    180  OD1 GLY A   2      31.272  54.419  11.002  0.00  0.00    +0.000 OA
ATOM    181  ND2 GLY A   2      33.297  54.949  10.154  0.00  0.00    +0.000 N 
ATOM    182 HD21 GLY A   2      33.508  55.597  10.940  0.00  0.00    +0.000 HD
ATOM    183 HD22 GLY A   2      33.992  54.812   9.392  0.00  0.00    +0.000 HD
ENDBRANCH 178 179
ENDBRANCH 139 178
ENDBRANCH 136 139
ENDBRANCH 134 135
BRANCH 134 184
ATOM    184  N   UNK A   1      32.963  49.447  12.026  0.00  0.00    +0.000 NA
ATOM    185  H   UNK A   1      31.939  49.335  11.883  0.00  0.00    +0.000 HD
ENDBRANCH 134 184
ENDBRANCH 133 134
ENDBRANCH 131 133
ENDBRANCH 130 131
ENDBRANCH   1 130
TORSDOF 79
REMARK  Name = ../refined-set-2016/1cgl/1cgl_pocket.pdb
REMARK  177 active torsions:
REMARK  status: ('A' for Active; 'I' for Inactive)
REMARK    1  A    between atoms: _1  and  _3
REMARK    2  A    between atoms: _3  and  _4
REMARK    3  A    between atoms: _3  and  _6
REMARK    4  A    between atoms: _6  and  _7
REMARK    5  A    between atoms: _11  and  ZN_430
REMARK    6  A    between atoms: _12  and  _14
REMARK    7  A    between atoms: _14  and  _15
REMARK    8  A    between atoms: _14  and  _17
REMARK    9  A    between atoms: _17  and  _18
REMARK   10  A    between atoms: _18  and  _20
REMARK   11  A    between atoms: _20  and  ZN_430
REMARK   12  A    between atoms: _21  and  _23
REMARK   13  A    between atoms: _23  and  _24
REMARK   14  A    between atoms: _23  and  _26
REMARK   15  A    between atoms: _26  and  _27
REMARK   16  A    between atoms: _32  and  _34
REMARK   17  A    between atoms: _34  and  _35
REMARK   18  A    between atoms: _34  and  _37
REMARK   19  A    between atoms: _37  and  _38
REMARK   20  A    between atoms: _41  and  _42
REMARK   21  A    between atoms: _47  and  _49
REMARK   22  A    between atoms: _49  and  _50
REMARK   23  A    between atoms: _49  and  _52
REMARK   24  A    between atoms: _52  and  _53
REMARK   25  A    between atoms: _59  and  _61
REMARK   26  A    between atoms: _61  and  _62
REMARK   27  A    between atoms: _61  and  _64
REMARK   28  A    between atoms: _64  and  _65
REMARK   29  A    between atoms: _68  and  _70
REMARK   30  A    between atoms: _70  and  _71
REMARK   31  A    between atoms: _73  and  _75
REMARK   32  A    between atoms: _75  and  _76
REMARK   33  A    between atoms: _78  and  _80
REMARK   34  A    between atoms: _80  and  _81
REMARK   35  A    between atoms: _80  and  _83
REMARK   36  A    between atoms: _83  and  _84
REMARK   37  A    between atoms: _89  and  _91
REMARK   38  A    between atoms: _91  and  _92
REMARK   39  A    between atoms: _91  and  _94
REMARK   40  A    between atoms: _94  and  _95
REMARK   41  A    between atoms: _98  and  _100
REMARK   42  A    between atoms: _100  and  _101
REMARK   43  A    between atoms: _104  and  _106
REMARK   44  A    between atoms: _106  and  _107
REMARK   45  A    between atoms: _106  and  _109
REMARK   46  A    between atoms: _109  and  _110
REMARK   47  A    between atoms: _114  and  ZN_430
REMARK   48  A    between atoms: _115  and  _117
REMARK   49  A    between atoms: _117  and  _118
REMARK   50  A    between atoms: _121  and  _123
REMARK   51  A    between atoms: _123  and  _124
REMARK   52  A    between atoms: _123  and  _126
REMARK   53  A    between atoms: _126  and  _127
REMARK   54  A    between atoms: _133  and  _135
REMARK   55  A    between atoms: _135  and  _136
REMARK   56  A    between atoms: _135  and  _138
REMARK   57  A    between atoms: _138  and  _139
REMARK   58  A    between atoms: _142  and  _144
REMARK   59  A    between atoms: _144  and  _145
REMARK   60  A    between atoms: _144  and  _147
REMARK   61  A    between atoms: _147  and  _148
REMARK   62  A    between atoms: _151  and  _153
REMARK   63  A    between atoms: _153  and  _154
REMARK   64  A    between atoms: _153  and  _156
REMARK   65  A    between atoms: _156  and  _157
REMARK   66  A    between atoms: _160  and  _162
REMARK   67  A    between atoms: _162  and  _163
REMARK   68  A    between atoms: _162  and  _165
REMARK   69  A    between atoms: _165  and  _166
REMARK   70  A    between atoms: _167  and  ZN_430
REMARK   71  A    between atoms: _171  and  _173
REMARK   72  A    between atoms: _173  and  _174
REMARK   73  A    between atoms: _173  and  _176
REMARK   74  A    between atoms: _176  and  _177
REMARK   75  A    between atoms: _183  and  _185
REMARK   76  A    between atoms: _185  and  _186
REMARK   77  A    between atoms: _185  and  _188
REMARK   78  A    between atoms: _188  and  _189
REMARK   79  A    between atoms: _189  and  _191
REMARK   80  A    between atoms: _191  and  CA_431
REMARK   81  A    between atoms: _192  and  _194
REMARK   82  A    between atoms: _194  and  _195
REMARK   83  A    between atoms: _194  and  _197
REMARK   84  A    between atoms: _197  and  _198
REMARK   85  A    between atoms: _198  and  _199
REMARK   86  A    between atoms: _199  and  _201
REMARK   87  A    between atoms: _201  and  CA_431
REMARK   88  A    between atoms: _202  and  _204
REMARK   89  A    between atoms: _204  and  _205
REMARK   90  A    between atoms: _204  and  _207
REMARK   91  A    between atoms: _207  and  _208
REMARK   92  A    between atoms: _218  and  _220
REMARK   93  A    between atoms: _220  and  _221
REMARK   94  A    between atoms: _220  and  _223
REMARK   95  A    between atoms: _223  and  _224
REMARK   96  A    between atoms: _224  and  _225
REMARK   97  A    between atoms: _230  and  _231
REMARK   98  A    between atoms: _230  and  _233
REMARK   99  A    between atoms: _233  and  _234
REMARK  100  A    between atoms: _239  and  _240
REMARK  101  A    between atoms: _242  and  _244
REMARK  102  A    between atoms: _244  and  _245
REMARK  103  A    between atoms: _244  and  _247
REMARK  104  A    between atoms: _247  and  _248
REMARK  105  A    between atoms: _253  and  _255
REMARK  106  A    between atoms: _255  and  _256
REMARK  107  A    between atoms: _255  and  _258
REMARK  108  A    between atoms: _258  and  _259
REMARK  109  A    between atoms: _262  and  _264
REMARK  110  A    between atoms: _264  and  _265
REMARK  111  A    between atoms: _264  and  _267
REMARK  112  A    between atoms: _267  and  _268
REMARK  113  A    between atoms: _268  and  _269
REMARK  114  A    between atoms: _269  and  _270
REMARK  115  A    between atoms: _279  and  _281
REMARK  116  A    between atoms: _281  and  _282
REMARK  117  A    between atoms: _281  and  _284
REMARK  118  A    between atoms: _287  and  _289
REMARK  119  A    between atoms: _289  and  _290
REMARK  120  A    between atoms: _293  and  _295
REMARK  121  A    between atoms: _295  and  _296
REMARK  122  A    between atoms: _299  and  _301
REMARK  123  A    between atoms: _301  and  _302
REMARK  124  A    between atoms: _301  and  _304
REMARK  125  A    between atoms: _304  and  _305
REMARK  126  A    between atoms: _309  and  ZN_429
REMARK  127  A    between atoms: _310  and  _312
REMARK  128  A    between atoms: _312  and  _313
REMARK  129  A    between atoms: _312  and  _315
REMARK  130  A    between atoms: _315  and  _316
REMARK  131  A    between atoms: _316  and  _317
REMARK  132  A    between atoms: _320  and  _322
REMARK  133  A    between atoms: _322  and  _323
REMARK  134  A    between atoms: _322  and  _325
REMARK  135  A    between atoms: _325  and  _326
REMARK  136  A    between atoms: _330  and  ZN_429
REMARK  137  A    between atoms: _331  and  _333
REMARK  138  A    between atoms: _333  and  _334
REMARK  139  A    between atoms: _333  and  _336
REMARK  140  A    between atoms: _336  and  _337
REMARK  141  A    between atoms: _340  and  _342
REMARK  142  A    between atoms: _342  and  _343
REMARK  143  A    between atoms: _342  and  _345
REMARK  144  A    between atoms: _345  and  _346
REMARK  145  A    between atoms: _348  and  _350
REMARK  146  A    between atoms: _350  and  _351
REMARK  147  A    between atoms: _350  and  _353
REMARK  148  A    between atoms: _353  and  _354
REMARK  149  A    between atoms: _358  and  ZN_429
REMARK  150  A    between atoms: _359  and  _361
REMARK  151  A    between atoms: _361  and  _362
REMARK  152  A    between atoms: _361  and  _364
REMARK  153  A    between atoms: _364  and  _365
REMARK  154  A    between atoms: _368  and  _370
REMARK  155  A    between atoms: _370  and  _371
REMARK  156  A    between atoms: _370  and  _373
REMARK  157  A    between atoms: _373  and  _374
REMARK  158  A    between atoms: _374  and  _375
REMARK  159  A    between atoms: _377  and  _379
REMARK  160  A    between atoms: _379  and  _380
REMARK  161  A    between atoms: _379  and  _382
REMARK  162  A    between atoms: _382  and  _383
REMARK  163  A    between atoms: _388  and  _389
REMARK  164  A    between atoms: _392  and  _393
REMARK  165  A    between atoms: _398  and  _400
REMARK  166  A    between atoms: _400  and  _401
REMARK  167  A    between atoms: _400  and  _403
REMARK  168  A    between atoms: _403  and  _404
REMARK  169  A    between atoms: _406  and  _408
REMARK  170  A    between atoms: _408  and  _409
REMARK  171  A    between atoms: _408  and  _411
REMARK  172  A    between atoms: _411  and  _412
REMARK  173  A    between atoms: _417  and  _418
REMARK  174  A    between atoms: _420  and  _422
REMARK  175  A    between atoms: _422  and  _423
REMARK  176  A    between atoms: _422  and  _425
REMARK  177  A    between atoms: _425  and  _426
REMARK                            x       y       z     vdW  Elec       q    Type
REMARK                         _______ _______ _______ _____ _____    ______ ____
ROOT
ATOM      1  CA  ILE A   1      41.772  47.153   8.257  0.00  0.00    +0.133 C 
ENDROOT
BRANCH   1   2
ATOM      2  N   ILE A   1      42.774  48.052   8.799  0.00  0.00    -0.239 NA
ATOM      3  H   ILE A   1      42.562  49.060   8.939  0.00  0.00    +0.142 HD
ENDBRANCH   1   2
BRANCH   1   4
ATOM      4  CB  ILE A   1      40.331  47.677   8.372  0.00  0.00    +0.023 C 
ATOM      5  CG2 ILE A   1      39.805  47.453   9.759  0.00  0.00    +0.002 C 
BRANCH   4   6
ATOM      6  CG1 ILE A   1      40.248  49.142   7.931  0.00  0.00    +0.002 C 
ATOM      7  CD1 ILE A   1      40.912  50.186   8.883  0.00  0.00    +0.000 C 
ENDBRANCH   4   6
ENDBRANCH   1   4
BRANCH   1   8
ATOM      8  C   ILE A   1      42.087  46.794   6.817  0.00  0.00    +0.224 C 
ATOM      9  O   ILE A   1      41.337  46.034   6.192  0.00  0.00    -0.287 OA
ENDBRANCH   1   8
TORSDOF 4
REMARK  Name = ../refined-set-2016/1cgl/1cgl_pocket.pdb
REMARK  177 active torsions:
REMARK  status: ('A' for Active; 'I' for Inactive)
REMARK    1  A    between atoms: _1  and  _3
REMARK    2  A    between atoms: _3  and  _4
REMARK    3  A    between atoms: _3  and  _6
REMARK    4  A    between atoms: _6  and  _7
REMARK    5  A    between atoms: _11  and  ZN_430
REMARK    6  A    between atoms: _12  and  _14
REMARK    7  A    between atoms: _14  and  _15
REMARK    8  A    between atoms: _14  and  _17
REMARK    9  A    between atoms: _17  and  _18
REMARK   10  A    between atoms: _18  and  _20
REMARK   11  A    between atoms: _20  and  ZN_430
REMARK   12  A    between atoms: _21  and  _23
REMARK   13  A    between atoms: _23  and  _24
REMARK   14  A    between atoms: _23  and  _26
REMARK   15  A    between atoms: _26  and  _27
REMARK   16  A    between atoms: _32  and  _34
REMARK   17  A    between atoms: _34  and  _35
REMARK   18  A    between atoms: _34  and  _37
REMARK   19  A    between atoms: _37  and  _38
REMARK   20  A    between atoms: _41  and  _42
REMARK   21  A    between atoms: _47  and  _49
REMARK   22  A    between atoms: _49  and  _50
REMARK   23  A    between atoms: _49  and  _52
REMARK   24  A    between atoms: _52  and  _53
REMARK   25  A    between atoms: _59  and  _61
REMARK   26  A    between atoms: _61  and  _62
REMARK   27  A    between atoms: _61  and  _64
REMARK   28  A    between atoms: _64  and  _65
REMARK   29  A    between atoms: _68  and  _70
REMARK   30  A    between atoms: _70  and  _71
REMARK   31  A    between atoms: _73  and  _75
REMARK   32  A    between atoms: _75  and  _76
REMARK   33  A    between atoms: _78  and  _80
REMARK   34  A    between atoms: _80  and  _81
REMARK   35  A    between atoms: _80  and  _83
REMARK   36  A    between atoms: _83  and  _84
REMARK   37  A    between atoms: _89  and  _91
REMARK   38  A    between atoms: _91  and  _92
REMARK   39  A    between atoms: _91  and  _94
REMARK   40  A    between atoms: _94  and  _95
REMARK   41  A    between atoms: _98  and  _100
REMARK   42  A    between atoms: _100  and  _101
REMARK   43  A    between atoms: _104  and  _106
REMARK   44  A    between atoms: _106  and  _107
REMARK   45  A    between atoms: _106  and  _109
REMARK   46  A    between atoms: _109  and  _110
REMARK   47  A    between atoms: _114  and  ZN_430
REMARK   48  A    between atoms: _115  and  _117
REMARK   49  A    between atoms: _117  and  _118
REMARK   50  A    between atoms: _121  and  _123
REMARK   51  A    between atoms: _123  and  _124
REMARK   52  A    between atoms: _123  and  _126
REMARK   53  A    between atoms: _126  and  _127
REMARK   54  A    between atoms: _133  and  _135
REMARK   55  A    between atoms: _135  and  _136
REMARK   56  A    between atoms: _135  and  _138
REMARK   57  A    between atoms: _138  and  _139
REMARK   58  A    between atoms: _142  and  _144
REMARK   59  A    between atoms: _144  and  _145
REMARK   60  A    between atoms: _144  and  _147
REMARK   61  A    between atoms: _147  and  _148
REMARK   62  A    between atoms: _151  and  _153
REMARK   63  A    between atoms: _153  and  _154
REMARK   64  A    between atoms: _153  and  _156
REMARK   65  A    between atoms: _156  and  _157
REMARK   66  A    between atoms: _160  and  _162
REMARK   67  A    between atoms: _162  and  _163
REMARK   68  A    between atoms: _162  and  _165
REMARK   69  A    between atoms: _165  and  _166
REMARK   70  A    between atoms: _167  and  ZN_430
REMARK   71  A    between atoms: _171  and  _173
REMARK   72  A    between atoms: _173  and  _174
REMARK   73  A    between atoms: _173  and  _176
REMARK   74  A    between atoms: _176  and  _177
REMARK   75  A    between atoms: _183  and  _185
REMARK   76  A    between atoms: _185  and  _186
REMARK   77  A    between atoms: _185  and  _188
REMARK   78  A    between atoms: _188  and  _189
REMARK   79  A    between atoms: _189  and  _191
REMARK   80  A    between atoms: _191  and  CA_431
REMARK   81  A    between atoms: _192  and  _194
REMARK   82  A    between atoms: _194  and  _195
REMARK   83  A    between atoms: _194  and  _197
REMARK   84  A    between atoms: _197  and  _198
REMARK   85  A    between atoms: _198  and  _199
REMARK   86  A    between atoms: _199  and  _201
REMARK   87  A    between atoms: _201  and  CA_431
REMARK   88  A    between atoms: _202  and  _204
REMARK   89  A    between atoms: _204  and  _205
REMARK   90  A    between atoms: _204  and  _207
REMARK   91  A    between atoms: _207  and  _208
REMARK   92  A    between atoms: _218  and  _220
REMARK   93  A    between atoms: _220  and  _221
REMARK   94  A    between atoms: _220  and  _223
REMARK   95  A    between atoms: _223  and  _224
REMARK   96  A    between atoms: _224  and  _225
REMARK   97  A    between atoms: _230  and  _231
REMARK   98  A    between atoms: _230  and  _233
REMARK   99  A    between atoms: _233  and  _234
REMARK  100  A    between atoms: _239  and  _240
REMARK  101  A    between atoms: _242  and  _244
REMARK  102  A    between atoms: _244  and  _245
REMARK  103  A    between atoms: _244  and  _247
REMARK  104  A    between atoms: _247  and  _248
REMARK  105  A    between atoms: _253  and  _255
REMARK  106  A    between atoms: _255  and  _256
REMARK  107  A    between atoms: _255  and  _258
REMARK  108  A    between atoms: _258  and  _259
REMARK  109  A    between atoms: _262  and  _264
REMARK  110  A    between atoms: _264  and  _265
REMARK  111  A    between atoms: _264  and  _267
REMARK  112  A    between atoms: _267  and  _268
REMARK  113  A    between atoms: _268  and  _269
REMARK  114  A    between atoms: _269  and  _270
REMARK  115  A    between atoms: _279  and  _281
REMARK  116  A    between atoms: _281  and  _282
REMARK  117  A    between atoms: _281  and  _284
REMARK  118  A    between atoms: _287  and  _289
REMARK  119  A    between atoms: _289  and  _290
REMARK  120  A    between atoms: _293  and  _295
REMARK  121  A    between atoms: _295  and  _296
REMARK  122  A    between atoms: _299  and  _301
REMARK  123  A    between atoms: _301  and  _302
REMARK  124  A    between atoms: _301  and  _304
REMARK  125  A    between atoms: _304  and  _305
REMARK  126  A    between atoms: _309  and  ZN_429
REMARK  127  A    between atoms: _310  and  _312
REMARK  128  A    between atoms: _312  and  _313
REMARK  129  A    between atoms: _312  and  _315
REMARK  130  A    between atoms: _315  and  _316
REMARK  131  A    between atoms: _316  and  _317
REMARK  132  A    between atoms: _320  and  _322
REMARK  133  A    between atoms: _322  and  _323
REMARK  134  A    between atoms: _322  and  _325
REMARK  135  A    between atoms: _325  and  _326
REMARK  136  A    between atoms: _330  and  ZN_429
REMARK  137  A    between atoms: _331  and  _333
REMARK  138  A    between atoms: _333  and  _334
REMARK  139  A    between atoms: _333  and  _336
REMARK  140  A    between atoms: _336  and  _337
REMARK  141  A    between atoms: _340  and  _342
REMARK  142  A    between atoms: _342  and  _343
REMARK  143  A    between atoms: _342  and  _345
REMARK  144  A    between atoms: _345  and  _346
REMARK  145  A    between atoms: _348  and  _350
REMARK  146  A    between atoms: _350  and  _351
REMARK  147  A    between atoms: _350  and  _353
REMARK  148  A    between atoms: _353  and  _354
REMARK  149  A    between atoms: _358  and  ZN_429
REMARK  150  A    between atoms: _359  and  _361
REMARK  151  A    between atoms: _361  and  _362
REMARK  152  A    between atoms: _361  and  _364
REMARK  153  A    between atoms: _364  and  _365
REMARK  154  A    between atoms: _368  and  _370
REMARK  155  A    between atoms: _370  and  _371
REMARK  156  A    between atoms: _370  and  _373
REMARK  157  A    between atoms: _373  and  _374
REMARK  158  A    between atoms: _374  and  _375
REMARK  159  A    between atoms: _377  and  _379
REMARK  160  A    between atoms: _379  and  _380
REMARK  161  A    between atoms: _379  and  _382
REMARK  162  A    between atoms: _382  and  _383
REMARK  163  A    between atoms: _388  and  _389
REMARK  164  A    between atoms: _392  and  _393
REMARK  165  A    between atoms: _398  and  _400
REMARK  166  A    between atoms: _400  and  _401
REMARK  167  A    between atoms: _400  and  _403
REMARK  168  A    between atoms: _403  and  _404
REMARK  169  A    between atoms: _406  and  _408
REMARK  170  A    between atoms: _408  and  _409
REMARK  171  A    between atoms: _408  and  _411
REMARK  172  A    between atoms: _411  and  _412
REMARK  173  A    between atoms: _417  and  _418
REMARK  174  A    between atoms: _420  and  _422
REMARK  175  A    between atoms: _422  and  _423
REMARK  176  A    between atoms: _422  and  _425
REMARK  177  A    between atoms: _425  and  _426
REMARK                            x       y       z     vdW  Elec       q    Type
REMARK                         _______ _______ _______ _____ _____    ______ ____
ROOT
ATOM      1  CA  ASP A   1      40.839  42.325   6.433  0.00  0.00    +0.144 C 
ENDROOT
BRANCH   1   2
ATOM      2  N   ASP A   1      41.738  43.075   5.563  0.00  0.00    -0.239 NA
ATOM      3  H   ASP A   1      41.905  44.080   5.771  0.00  0.00    +0.142 HD
ENDBRANCH   1   2
BRANCH   1   4
ATOM      4  C   ASP A   1      39.533  41.881   5.797  0.00  0.00    +0.225 C 
ATOM      5  O   ASP A   1      39.024  42.525   4.885  0.00  0.00    -0.287 OA
ENDBRANCH   1   4
BRANCH   1   6
ATOM      6  CB  ASP A   1      40.548  43.122   7.699  0.00  0.00    +0.139 C 
BRANCH   6   7
ATOM      7  CG  ASP A   1      41.769  43.278   8.570  0.00  0.00    +0.367 C 
ATOM      8  OD2 ASP A   1      41.608  43.448   9.794  0.00  0.00    -0.246 OA
ATOM      9  OD1 ASP A   1      42.894  43.223   8.030  0.00  0.00    -0.246 OA
ENDBRANCH   6   7
ENDBRANCH   1   6
TORSDOF 4
REMARK  Name = ../refined-set-2016/1cgl/1cgl_pocket.pdb
REMARK  177 active torsions:
REMARK  status: ('A' for Active; 'I' for Inactive)
REMARK    1  A    between atoms: _1  and  _3
REMARK    2  A    between atoms: _3  and  _4
REMARK    3  A    between atoms: _3  and  _6
REMARK    4  A    between atoms: _6  and  _7
REMARK    5  A    between atoms: _11  and  ZN_430
REMARK    6  A    between atoms: _12  and  _14
REMARK    7  A    between atoms: _14  and  _15
REMARK    8  A    between atoms: _14  and  _17
REMARK    9  A    between atoms: _17  and  _18
REMARK   10  A    between atoms: _18  and  _20
REMARK   11  A    between atoms: _20  and  ZN_430
REMARK   12  A    between atoms: _21  and  _23
REMARK   13  A    between atoms: _23  and  _24
REMARK   14  A    between atoms: _23  and  _26
REMARK   15  A    between atoms: _26  and  _27
REMARK   16  A    between atoms: _32  and  _34
REMARK   17  A    between atoms: _34  and  _35
REMARK   18  A    between atoms: _34  and  _37
REMARK   19  A    between atoms: _37  and  _38
REMARK   20  A    between atoms: _41  and  _42
REMARK   21  A    between atoms: _47  and  _49
REMARK   22  A    between atoms: _49  and  _50
REMARK   23  A    between atoms: _49  and  _52
REMARK   24  A    between atoms: _52  and  _53
REMARK   25  A    between atoms: _59  and  _61
REMARK   26  A    between atoms: _61  and  _62
REMARK   27  A    between atoms: _61  and  _64
REMARK   28  A    between atoms: _64  and  _65
REMARK   29  A    between atoms: _68  and  _70
REMARK   30  A    between atoms: _70  and  _71
REMARK   31  A    between atoms: _73  and  _75
REMARK   32  A    between atoms: _75  and  _76
REMARK   33  A    between atoms: _78  and  _80
REMARK   34  A    between atoms: _80  and  _81
REMARK   35  A    between atoms: _80  and  _83
REMARK   36  A    between atoms: _83  and  _84
REMARK   37  A    between atoms: _89  and  _91
REMARK   38  A    between atoms: _91  and  _92
REMARK   39  A    between atoms: _91  and  _94
REMARK   40  A    between atoms: _94  and  _95
REMARK   41  A    between atoms: _98  and  _100
REMARK   42  A    between atoms: _100  and  _101
REMARK   43  A    between atoms: _104  and  _106
REMARK   44  A    between atoms: _106  and  _107
REMARK   45  A    between atoms: _106  and  _109
REMARK   46  A    between atoms: _109  and  _110
REMARK   47  A    between atoms: _114  and  ZN_430
REMARK   48  A    between atoms: _115  and  _117
REMARK   49  A    between atoms: _117  and  _118
REMARK   50  A    between atoms: _121  and  _123
REMARK   51  A    between atoms: _123  and  _124
REMARK   52  A    between atoms: _123  and  _126
REMARK   53  A    between atoms: _126  and  _127
REMARK   54  A    between atoms: _133  and  _135
REMARK   55  A    between atoms: _135  and  _136
REMARK   56  A    between atoms: _135  and  _138
REMARK   57  A    between atoms: _138  and  _139
REMARK   58  A    between atoms: _142  and  _144
REMARK   59  A    between atoms: _144  and  _145
REMARK   60  A    between atoms: _144  and  _147
REMARK   61  A    between atoms: _147  and  _148
REMARK   62  A    between atoms: _151  and  _153
REMARK   63  A    between atoms: _153  and  _154
REMARK   64  A    between atoms: _153  and  _156
REMARK   65  A    between atoms: _156  and  _157
REMARK   66  A    between atoms: _160  and  _162
REMARK   67  A    between atoms: _162  and  _163
REMARK   68  A    between atoms: _162  and  _165
REMARK   69  A    between atoms: _165  and  _166
REMARK   70  A    between atoms: _167  and  ZN_430
REMARK   71  A    between atoms: _171  and  _173
REMARK   72  A    between atoms: _173  and  _174
REMARK   73  A    between atoms: _173  and  _176
REMARK   74  A    between atoms: _176  and  _177
REMARK   75  A    between atoms: _183  and  _185
REMARK   76  A    between atoms: _185  and  _186
REMARK   77  A    between atoms: _185  and  _188
REMARK   78  A    between atoms: _188  and  _189
REMARK   79  A    between atoms: _189  and  _191
REMARK   80  A    between atoms: _191  and  CA_431
REMARK   81  A    between atoms: _192  and  _194
REMARK   82  A    between atoms: _194  and  _195
REMARK   83  A    between atoms: _194  and  _197
REMARK   84  A    between atoms: _197  and  _198
REMARK   85  A    between atoms: _198  and  _199
REMARK   86  A    between atoms: _199  and  _201
REMARK   87  A    between atoms: _201  and  CA_431
REMARK   88  A    between atoms: _202  and  _204
REMARK   89  A    between atoms: _204  and  _205
REMARK   90  A    between atoms: _204  and  _207
REMARK   91  A    between atoms: _207  and  _208
REMARK   92  A    between atoms: _218  and  _220
REMARK   93  A    between atoms: _220  and  _221
REMARK   94  A    between atoms: _220  and  _223
REMARK   95  A    between atoms: _223  and  _224
REMARK   96  A    between atoms: _224  and  _225
REMARK   97  A    between atoms: _230  and  _231
REMARK   98  A    between atoms: _230  and  _233
REMARK   99  A    between atoms: _233  and  _234
REMARK  100  A    between atoms: _239  and  _240
REMARK  101  A    between atoms: _242  and  _244
REMARK  102  A    between atoms: _244  and  _245
REMARK  103  A    between atoms: _244  and  _247
REMARK  104  A    between atoms: _247  and  _248
REMARK  105  A    between atoms: _253  and  _255
REMARK  106  A    between atoms: _255  and  _256
REMARK  107  A    between atoms: _255  and  _258
REMARK  108  A    between atoms: _258  and  _259
REMARK  109  A    between atoms: _262  and  _264
REMARK  110  A    between atoms: _264  and  _265
REMARK  111  A    between atoms: _264  and  _267
REMARK  112  A    between atoms: _267  and  _268
REMARK  113  A    between atoms: _268  and  _269
REMARK  114  A    between atoms: _269  and  _270
REMARK  115  A    between atoms: _279  and  _281
REMARK  116  A    between atoms: _281  and  _282
REMARK  117  A    between atoms: _281  and  _284
REMARK  118  A    between atoms: _287  and  _289
REMARK  119  A    between atoms: _289  and  _290
REMARK  120  A    between atoms: _293  and  _295
REMARK  121  A    between atoms: _295  and  _296
REMARK  122  A    between atoms: _299  and  _301
REMARK  123  A    between atoms: _301  and  _302
REMARK  124  A    between atoms: _301  and  _304
REMARK  125  A    between atoms: _304  and  _305
REMARK  126  A    between atoms: _309  and  ZN_429
REMARK  127  A    between atoms: _310  and  _312
REMARK  128  A    between atoms: _312  and  _313
REMARK  129  A    between atoms: _312  and  _315
REMARK  130  A    between atoms: _315  and  _316
REMARK  131  A    between atoms: _316  and  _317
REMARK  132  A    between atoms: _320  and  _322
REMARK  133  A    between atoms: _322  and  _323
REMARK  134  A    between atoms: _322  and  _325
REMARK  135  A    between atoms: _325  and  _326
REMARK  136  A    between atoms: _330  and  ZN_429
REMARK  137  A    between atoms: _331  and  _333
REMARK  138  A    between atoms: _333  and  _334
REMARK  139  A    between atoms: _333  and  _336
REMARK  140  A    between atoms: _336  and  _337
REMARK  141  A    between atoms: _340  and  _342
REMARK  142  A    between atoms: _342  and  _343
REMARK  143  A    between atoms: _342  and  _345
REMARK  144  A    between atoms: _345  and  _346
REMARK  145  A    between atoms: _348  and  _350
REMARK  146  A    between atoms: _350  and  _351
REMARK  147  A    between atoms: _350  and  _353
REMARK  148  A    between atoms: _353  and  _354
REMARK  149  A    between atoms: _358  and  ZN_429
REMARK  150  A    between atoms: _359  and  _361
REMARK  151  A    between atoms: _361  and  _362
REMARK  152  A    between atoms: _361  and  _364
REMARK  153  A    between atoms: _364  and  _365
REMARK  154  A    between atoms: _368  and  _370
REMARK  155  A    between atoms: _370  and  _371
REMARK  156  A    between atoms: _370  and  _373
REMARK  157  A    between atoms: _373  and  _374
REMARK  158  A    between atoms: _374  and  _375
REMARK  159  A    between atoms: _377  and  _379
REMARK  160  A    between atoms: _379  and  _380
REMARK  161  A    between atoms: _379  and  _382
REMARK  162  A    between atoms: _382  and  _383
REMARK  163  A    between atoms: _388  and  _389
REMARK  164  A    between atoms: _392  and  _393
REMARK  165  A    between atoms: _398  and  _400
REMARK  166  A    between atoms: _400  and  _401
REMARK  167  A    between atoms: _400  and  _403
REMARK  168  A    between atoms: _403  and  _404
REMARK  169  A    between atoms: _406  and  _408
REMARK  170  A    between atoms: _408  and  _409
REMARK  171  A    between atoms: _408  and  _411
REMARK  172  A    between atoms: _411  and  _412
REMARK  173  A    between atoms: _417  and  _418
REMARK  174  A    between atoms: _420  and  _422
REMARK  175  A    between atoms: _422  and  _423
REMARK  176  A    between atoms: _422  and  _425
REMARK  177  A    between atoms: _425  and  _426
REMARK                            x       y       z     vdW  Elec       q    Type
REMARK                         _______ _______ _______ _____ _____    ______ ____
ROOT
ATOM      1  CG  TRP A   1      29.269  31.234   7.462  0.00  0.00    -0.002 A 
ATOM      2  CD1 TRP A   1      28.982  32.069   8.504  0.00  0.00    +0.068 A 
ATOM      3  NE1 TRP A   1      28.913  33.369   8.061  0.00  0.00    -0.352 N 
ATOM      4  HE1 TRP A   1      28.709  34.198   8.655  0.00  0.00    +0.166 HD
ATOM      5  CE2 TRP A   1      29.156  33.400   6.713  0.00  0.00    +0.056 A 
ATOM      6  CZ2 TRP A   1      29.191  34.483   5.817  0.00  0.00    +0.017 A 
ATOM      7  CH2 TRP A   1      29.466  34.214   4.505  0.00  0.00    +0.001 A 
ATOM      8  CZ3 TRP A   1      29.705  32.906   4.062  0.00  0.00    +0.000 A 
ATOM      9  CE3 TRP A   1      29.669  31.830   4.942  0.00  0.00    +0.001 A 
ATOM     10  CD2 TRP A   1      29.391  32.073   6.297  0.00  0.00    +0.013 A 
ENDROOT
BRANCH   1  11
ATOM     11  CB  TRP A   1      29.372  29.741   7.505  0.00  0.00    +0.053 C 
BRANCH  11  12
ATOM     12  CA  TRP A   1      28.130  29.082   6.914  0.00  0.00    +0.137 C 
BRANCH  12  13
ATOM     13  N   TRP A   1      26.958  29.441   7.699  0.00  0.00    -0.239 NA
ATOM     14  H   TRP A   1      27.030  29.522   8.733  0.00  0.00    +0.142 HD
ENDBRANCH  12  13
BRANCH  12  15
ATOM     15  C   TRP A   1      28.268  27.568   6.818  0.00  0.00    +0.224 C 
ATOM     16  O   TRP A   1      28.294  26.876   7.833  0.00  0.00    -0.287 OA
ENDBRANCH  12  15
ENDBRANCH  11  12
ENDBRANCH   1  11
TORSDOF 4
REMARK  Name = ../refined-set-2016/1cgl/1cgl_pocket.pdb
REMARK  177 active torsions:
REMARK  status: ('A' for Active; 'I' for Inactive)
REMARK    1  A    between atoms: _1  and  _3
REMARK    2  A    between atoms: _3  and  _4
REMARK    3  A    between atoms: _3  and  _6
REMARK    4  A    between atoms: _6  and  _7
REMARK    5  A    between atoms: _11  and  ZN_430
REMARK    6  A    between atoms: _12  and  _14
REMARK    7  A    between atoms: _14  and  _15
REMARK    8  A    between atoms: _14  and  _17
REMARK    9  A    between atoms: _17  and  _18
REMARK   10  A    between atoms: _18  and  _20
REMARK   11  A    between atoms: _20  and  ZN_430
REMARK   12  A    between atoms: _21  and  _23
REMARK   13  A    between atoms: _23  and  _24
REMARK   14  A    between atoms: _23  and  _26
REMARK   15  A    between atoms: _26  and  _27
REMARK   16  A    between atoms: _32  and  _34
REMARK   17  A    between atoms: _34  and  _35
REMARK   18  A    between atoms: _34  and  _37
REMARK   19  A    between atoms: _37  and  _38
REMARK   20  A    between atoms: _41  and  _42
REMARK   21  A    between atoms: _47  and  _49
REMARK   22  A    between atoms: _49  and  _50
REMARK   23  A    between atoms: _49  and  _52
REMARK   24  A    between atoms: _52  and  _53
REMARK   25  A    between atoms: _59  and  _61
REMARK   26  A    between atoms: _61  and  _62
REMARK   27  A    between atoms: _61  and  _64
REMARK   28  A    between atoms: _64  and  _65
REMARK   29  A    between atoms: _68  and  _70
REMARK   30  A    between atoms: _70  and  _71
REMARK   31  A    between atoms: _73  and  _75
REMARK   32  A    between atoms: _75  and  _76
REMARK   33  A    between atoms: _78  and  _80
REMARK   34  A    between atoms: _80  and  _81
REMARK   35  A    between atoms: _80  and  _83
REMARK   36  A    between atoms: _83  and  _84
REMARK   37  A    between atoms: _89  and  _91
REMARK   38  A    between atoms: _91  and  _92
REMARK   39  A    between atoms: _91  and  _94
REMARK   40  A    between atoms: _94  and  _95
REMARK   41  A    between atoms: _98  and  _100
REMARK   42  A    between atoms: _100  and  _101
REMARK   43  A    between atoms: _104  and  _106
REMARK   44  A    between atoms: _106  and  _107
REMARK   45  A    between atoms: _106  and  _109
REMARK   46  A    between atoms: _109  and  _110
REMARK   47  A    between atoms: _114  and  ZN_430
REMARK   48  A    between atoms: _115  and  _117
REMARK   49  A    between atoms: _117  and  _118
REMARK   50  A    between atoms: _121  and  _123
REMARK   51  A    between atoms: _123  and  _124
REMARK   52  A    between atoms: _123  and  _126
REMARK   53  A    between atoms: _126  and  _127
REMARK   54  A    between atoms: _133  and  _135
REMARK   55  A    between atoms: _135  and  _136
REMARK   56  A    between atoms: _135  and  _138
REMARK   57  A    between atoms: _138  and  _139
REMARK   58  A    between atoms: _142  and  _144
REMARK   59  A    between atoms: _144  and  _145
REMARK   60  A    between atoms: _144  and  _147
REMARK   61  A    between atoms: _147  and  _148
REMARK   62  A    between atoms: _151  and  _153
REMARK   63  A    between atoms: _153  and  _154
REMARK   64  A    between atoms: _153  and  _156
REMARK   65  A    between atoms: _156  and  _157
REMARK   66  A    between atoms: _160  and  _162
REMARK   67  A    between atoms: _162  and  _163
REMARK   68  A    between atoms: _162  and  _165
REMARK   69  A    between atoms: _165  and  _166
REMARK   70  A    between atoms: _167  and  ZN_430
REMARK   71  A    between atoms: _171  and  _173
REMARK   72  A    between atoms: _173  and  _174
REMARK   73  A    between atoms: _173  and  _176
REMARK   74  A    between atoms: _176  and  _177
REMARK   75  A    between atoms: _183  and  _185
REMARK   76  A    between atoms: _185  and  _186
REMARK   77  A    between atoms: _185  and  _188
REMARK   78  A    between atoms: _188  and  _189
REMARK   79  A    between atoms: _189  and  _191
REMARK   80  A    between atoms: _191  and  CA_431
REMARK   81  A    between atoms: _192  and  _194
REMARK   82  A    between atoms: _194  and  _195
REMARK   83  A    between atoms: _194  and  _197
REMARK   84  A    between atoms: _197  and  _198
REMARK   85  A    between atoms: _198  and  _199
REMARK   86  A    between atoms: _199  and  _201
REMARK   87  A    between atoms: _201  and  CA_431
REMARK   88  A    between atoms: _202  and  _204
REMARK   89  A    between atoms: _204  and  _205
REMARK   90  A    between atoms: _204  and  _207
REMARK   91  A    between atoms: _207  and  _208
REMARK   92  A    between atoms: _218  and  _220
REMARK   93  A    between atoms: _220  and  _221
REMARK   94  A    between atoms: _220  and  _223
REMARK   95  A    between atoms: _223  and  _224
REMARK   96  A    between atoms: _224  and  _225
REMARK   97  A    between atoms: _230  and  _231
REMARK   98  A    between atoms: _230  and  _233
REMARK   99  A    between atoms: _233  and  _234
REMARK  100  A    between atoms: _239  and  _240
REMARK  101  A    between atoms: _242  and  _244
REMARK  102  A    between atoms: _244  and  _245
REMARK  103  A    between atoms: _244  and  _247
REMARK  104  A    between atoms: _247  and  _248
REMARK  105  A    between atoms: _253  and  _255
REMARK  106  A    between atoms: _255  and  _256
REMARK  107  A    between atoms: _255  and  _258
REMARK  108  A    between atoms: _258  and  _259
REMARK  109  A    between atoms: _262  and  _264
REMARK  110  A    between atoms: _264  and  _265
REMARK  111  A    between atoms: _264  and  _267
REMARK  112  A    between atoms: _267  and  _268
REMARK  113  A    between atoms: _268  and  _269
REMARK  114  A    between atoms: _269  and  _270
REMARK  115  A    between atoms: _279  and  _281
REMARK  116  A    between atoms: _281  and  _282
REMARK  117  A    between atoms: _281  and  _284
REMARK  118  A    between atoms: _287  and  _289
REMARK  119  A    between atoms: _289  and  _290
REMARK  120  A    between atoms: _293  and  _295
REMARK  121  A    between atoms: _295  and  _296
REMARK  122  A    between atoms: _299  and  _301
REMARK  123  A    between atoms: _301  and  _302
REMARK  124  A    between atoms: _301  and  _304
REMARK  125  A    between atoms: _304  and  _305
REMARK  126  A    between atoms: _309  and  ZN_429
REMARK  127  A    between atoms: _310  and  _312
REMARK  128  A    between atoms: _312  and  _313
REMARK  129  A    between atoms: _312  and  _315
REMARK  130  A    between atoms: _315  and  _316
REMARK  131  A    between atoms: _316  and  _317
REMARK  132  A    between atoms: _320  and  _322
REMARK  133  A    between atoms: _322  and  _323
REMARK  134  A    between atoms: _322  and  _325
REMARK  135  A    between atoms: _325  and  _326
REMARK  136  A    between atoms: _330  and  ZN_429
REMARK  137  A    between atoms: _331  and  _333
REMARK  138  A    between atoms: _333  and  _334
REMARK  139  A    between atoms: _333  and  _336
REMARK  140  A    between atoms: _336  and  _337
REMARK  141  A    between atoms: _340  and  _342
REMARK  142  A    between atoms: _342  and  _343
REMARK  143  A    between atoms: _342  and  _345
REMARK  144  A    between atoms: _345  and  _346
REMARK  145  A    between atoms: _348  and  _350
REMARK  146  A    between atoms: _350  and  _351
REMARK  147  A    between atoms: _350  and  _353
REMARK  148  A    between atoms: _353  and  _354
REMARK  149  A    between atoms: _358  and  ZN_429
REMARK  150  A    between atoms: _359  and  _361
REMARK  151  A    between atoms: _361  and  _362
REMARK  152  A    between atoms: _361  and  _364
REMARK  153  A    between atoms: _364  and  _365
REMARK  154  A    between atoms: _368  and  _370
REMARK  155  A    between atoms: _370  and  _371
REMARK  156  A    between atoms: _370  and  _373
REMARK  157  A    between atoms: _373  and  _374
REMARK  158  A    between atoms: _374  and  _375
REMARK  159  A    between atoms: _377  and  _379
REMARK  160  A    between atoms: _379  and  _380
REMARK  161  A    between atoms: _379  and  _382
REMARK  162  A    between atoms: _382  and  _383
REMARK  163  A    between atoms: _388  and  _389
REMARK  164  A    between atoms: _392  and  _393
REMARK  165  A    between atoms: _398  and  _400
REMARK  166  A    between atoms: _400  and  _401
REMARK  167  A    between atoms: _400  and  _403
REMARK  168  A    between atoms: _403  and  _404
REMARK  169  A    between atoms: _406  and  _408
REMARK  170  A    between atoms: _408  and  _409
REMARK  171  A    between atoms: _408  and  _411
REMARK  172  A    between atoms: _411  and  _412
REMARK  173  A    between atoms: _417  and  _418
REMARK  174  A    between atoms: _420  and  _422
REMARK  175  A    between atoms: _422  and  _423
REMARK  176  A    between atoms: _422  and  _425
REMARK  177  A    between atoms: _425  and  _426
REMARK                            x       y       z     vdW  Elec       q    Type
REMARK                         _______ _______ _______ _____ _____    ______ ____
ROOT
ATOM      1  C   GLU A   1      24.432  28.516   1.977  0.00  0.00    +0.242 C 
ATOM      2  O   GLU A   1      24.212  28.655   3.200  0.00  0.00    -0.273 OA
ATOM      3  N   TYR A   2      25.472  29.033   1.324  0.00  0.00    -0.282 N 
ATOM      4  CA  TYR A   2      26.602  29.786   1.859  0.00  0.00    +0.086 C 
ATOM      5  H   TYR A   2      25.480  28.879   0.295  0.00  0.00    +0.155 HD
ENDROOT
BRANCH   4   6
ATOM      6  C   TYR A   2      27.804  28.996   2.328  0.00  0.00    +0.256 C 
ATOM      7  O   TYR A   2      28.172  28.973   3.486  0.00  0.00    -0.269 OA
ATOM      8  N   ASN A   3      28.426  28.384   1.327  0.00  0.00    -0.294 N 
ATOM      9  H   ASN A   3      28.006  28.478   0.380  0.00  0.00    +0.150 HD
BRANCH   8  10
ATOM     10  CA  ASN A   3      29.637  27.597   1.436  0.00  0.00    +0.158 C 
BRANCH  10  11
ATOM     11  C   ASN A   3      30.771  28.564   1.786  0.00  0.00    +0.241 C 
ATOM     12  N   LEU A   4      31.260  28.505   3.020  0.00  0.00    -0.298 N 
ATOM     13  H   LEU A   4      30.868  27.803   3.679  0.00  0.00    +0.150 HD
ATOM     14  O   ASN A   3      31.209  29.332   0.930  0.00  0.00    -0.273 OA
BRANCH  12  15
ATOM     15  CA  LEU A   4      32.328  29.388   3.489  0.00  0.00    +0.137 C 
BRANCH  15  16
ATOM     16  C   LEU A   4      33.506  29.522   2.534  0.00  0.00    +0.227 C 
ATOM     17  O   LEU A   4      33.960  30.623   2.260  0.00  0.00    -0.286 OA
ENDBRANCH  15  16
BRANCH  15  18
ATOM     18  CB  LEU A   4      32.838  28.921   4.856  0.00  0.00    +0.028 C 
BRANCH  18  19
ATOM     19  CG  LEU A   4      33.242  29.946   5.917  0.00  0.00    +0.002 C 
ATOM     20  CD2 LEU A   4      34.301  29.308   6.741  0.00  0.00    +0.000 C 
ATOM     21  CD1 LEU A   4      33.746  31.237   5.334  0.00  0.00    +0.000 C 
ENDBRANCH  18  19
ENDBRANCH  15  18
ENDBRANCH  12  15
ENDBRANCH  10  11
BRANCH  10  22
ATOM     22  CB  ASN A   3      29.916  26.968   0.074  0.00  0.00    +0.114 C 
BRANCH  22  23
ATOM     23  CG  ASN A   3      31.064  26.008   0.110  0.00  0.00    +0.222 C 
ATOM     24  ND2 ASN A   3      32.276  26.524   0.260  0.00  0.00    -0.329 N 
ATOM     25 HD21 ASN A   3      32.398  27.555   0.328  0.00  0.00    +0.145 HD
ATOM     26 HD22 ASN A   3      33.105  25.898   0.309  0.00  0.00    +0.145 HD
ATOM     27  OD1 ASN A   3      30.868  24.810   0.025  0.00  0.00    -0.275 OA
ENDBRANCH  22  23
ENDBRANCH  10  22
ENDBRANCH   8  10
ENDBRANCH   4   6
BRANCH   4  28
ATOM     28  CB  TYR A   2      26.178  30.973   2.741  0.00  0.00    +0.072 C 
BRANCH  28  29
ATOM     29  CG  TYR A   2      25.181  31.897   2.012  0.00  0.00    -0.016 A 
ATOM     30  CD2 TYR A   2      24.180  32.558   2.717  0.00  0.00    -0.001 A 
ATOM     31  CE2 TYR A   2      23.165  33.225   2.065  0.00  0.00    +0.036 A 
ATOM     32  CZ  TYR A   2      23.125  33.257   0.674  0.00  0.00    +0.134 A 
ATOM     33  CE1 TYR A   2      24.125  32.625  -0.061  0.00  0.00    +0.036 A 
ATOM     34  CD1 TYR A   2      25.138  31.959   0.605  0.00  0.00    -0.001 A 
BRANCH  32  35
ATOM     35  OH  TYR A   2      22.039  33.883   0.046  0.00  0.00    -0.506 OA
ATOM     36  HH  TYR A   2      22.150  33.826  -0.936  0.00  0.00    +0.292 HD
ENDBRANCH  32  35
ENDBRANCH  28  29
ENDBRANCH   4  28
BRANCH   1  37
ATOM     37  CA  GLU A   1      23.452  27.827   1.010  0.00  0.00    +0.146 C 
BRANCH  37  38
ATOM     38  N   GLU A   1      23.230  26.409   1.030  0.00  0.00    -0.238 NA
ATOM     39  H   GLU A   1      22.284  26.041   0.803  0.00  0.00    +0.142 HD
ENDBRANCH  37  38
BRANCH  37  40
ATOM     40  CB  GLU A   1      22.129  28.538   0.992  0.00  0.00    +0.038 C 
BRANCH  40  41
ATOM     41  CG  GLU A   1      22.195  29.801   0.248  0.00  0.00    +0.116 C 
BRANCH  41  42
ATOM     42  CD  GLU A   1      20.981  29.998  -0.611  0.00  0.00    +0.365 C 
ATOM     43  OE2 GLU A   1      19.857  30.135  -0.057  0.00  0.00    -0.246 OA
ATOM     44  OE1 GLU A   1      21.158  30.010  -1.841  0.00  0.00    -0.246 OA
ENDBRANCH  41  42
ENDBRANCH  40  41
ENDBRANCH  37  40
ENDBRANCH   1  37
TORSDOF 17
REMARK  Name = ../refined-set-2016/1cgl/1cgl_pocket.pdb
REMARK  177 active torsions:
REMARK  status: ('A' for Active; 'I' for Inactive)
REMARK    1  A    between atoms: _1  and  _3
REMARK    2  A    between atoms: _3  and  _4
REMARK    3  A    between atoms: _3  and  _6
REMARK    4  A    between atoms: _6  and  _7
REMARK    5  A    between atoms: _11  and  ZN_430
REMARK    6  A    between atoms: _12  and  _14
REMARK    7  A    between atoms: _14  and  _15
REMARK    8  A    between atoms: _14  and  _17
REMARK    9  A    between atoms: _17  and  _18
REMARK   10  A    between atoms: _18  and  _20
REMARK   11  A    between atoms: _20  and  ZN_430
REMARK   12  A    between atoms: _21  and  _23
REMARK   13  A    between atoms: _23  and  _24
REMARK   14  A    between atoms: _23  and  _26
REMARK   15  A    between atoms: _26  and  _27
REMARK   16  A    between atoms: _32  and  _34
REMARK   17  A    between atoms: _34  and  _35
REMARK   18  A    between atoms: _34  and  _37
REMARK   19  A    between atoms: _37  and  _38
REMARK   20  A    between atoms: _41  and  _42
REMARK   21  A    between atoms: _47  and  _49
REMARK   22  A    between atoms: _49  and  _50
REMARK   23  A    between atoms: _49  and  _52
REMARK   24  A    between atoms: _52  and  _53
REMARK   25  A    between atoms: _59  and  _61
REMARK   26  A    between atoms: _61  and  _62
REMARK   27  A    between atoms: _61  and  _64
REMARK   28  A    between atoms: _64  and  _65
REMARK   29  A    between atoms: _68  and  _70
REMARK   30  A    between atoms: _70  and  _71
REMARK   31  A    between atoms: _73  and  _75
REMARK   32  A    between atoms: _75  and  _76
REMARK   33  A    between atoms: _78  and  _80
REMARK   34  A    between atoms: _80  and  _81
REMARK   35  A    between atoms: _80  and  _83
REMARK   36  A    between atoms: _83  and  _84
REMARK   37  A    between atoms: _89  and  _91
REMARK   38  A    between atoms: _91  and  _92
REMARK   39  A    between atoms: _91  and  _94
REMARK   40  A    between atoms: _94  and  _95
REMARK   41  A    between atoms: _98  and  _100
REMARK   42  A    between atoms: _100  and  _101
REMARK   43  A    between atoms: _104  and  _106
REMARK   44  A    between atoms: _106  and  _107
REMARK   45  A    between atoms: _106  and  _109
REMARK   46  A    between atoms: _109  and  _110
REMARK   47  A    between atoms: _114  and  ZN_430
REMARK   48  A    between atoms: _115  and  _117
REMARK   49  A    between atoms: _117  and  _118
REMARK   50  A    between atoms: _121  and  _123
REMARK   51  A    between atoms: _123  and  _124
REMARK   52  A    between atoms: _123  and  _126
REMARK   53  A    between atoms: _126  and  _127
REMARK   54  A    between atoms: _133  and  _135
REMARK   55  A    between atoms: _135  and  _136
REMARK   56  A    between atoms: _135  and  _138
REMARK   57  A    between atoms: _138  and  _139
REMARK   58  A    between atoms: _142  and  _144
REMARK   59  A    between atoms: _144  and  _145
REMARK   60  A    between atoms: _144  and  _147
REMARK   61  A    between atoms: _147  and  _148
REMARK   62  A    between atoms: _151  and  _153
REMARK   63  A    between atoms: _153  and  _154
REMARK   64  A    between atoms: _153  and  _156
REMARK   65  A    between atoms: _156  and  _157
REMARK   66  A    between atoms: _160  and  _162
REMARK   67  A    between atoms: _162  and  _163
REMARK   68  A    between atoms: _162  and  _165
REMARK   69  A    between atoms: _165  and  _166
REMARK   70  A    between atoms: _167  and  ZN_430
REMARK   71  A    between atoms: _171  and  _173
REMARK   72  A    between atoms: _173  and  _174
REMARK   73  A    between atoms: _173  and  _176
REMARK   74  A    between atoms: _176  and  _177
REMARK   75  A    between atoms: _183  and  _185
REMARK   76  A    between atoms: _185  and  _186
REMARK   77  A    between atoms: _185  and  _188
REMARK   78  A    between atoms: _188  and  _189
REMARK   79  A    between atoms: _189  and  _191
REMARK   80  A    between atoms: _191  and  CA_431
REMARK   81  A    between atoms: _192  and  _194
REMARK   82  A    between atoms: _194  and  _195
REMARK   83  A    between atoms: _194  and  _197
REMARK   84  A    between atoms: _197  and  _198
REMARK   85  A    between atoms: _198  and  _199
REMARK   86  A    between atoms: _199  and  _201
REMARK   87  A    between atoms: _201  and  CA_431
REMARK   88  A    between atoms: _202  and  _204
REMARK   89  A    between atoms: _204  and  _205
REMARK   90  A    between atoms: _204  and  _207
REMARK   91  A    between atoms: _207  and  _208
REMARK   92  A    between atoms: _218  and  _220
REMARK   93  A    between atoms: _220  and  _221
REMARK   94  A    between atoms: _220  and  _223
REMARK   95  A    between atoms: _223  and  _224
REMARK   96  A    between atoms: _224  and  _225
REMARK   97  A    between atoms: _230  and  _231
REMARK   98  A    between atoms: _230  and  _233
REMARK   99  A    between atoms: _233  and  _234
REMARK  100  A    between atoms: _239  and  _240
REMARK  101  A    between atoms: _242  and  _244
REMARK  102  A    between atoms: _244  and  _245
REMARK  103  A    between atoms: _244  and  _247
REMARK  104  A    between atoms: _247  and  _248
REMARK  105  A    between atoms: _253  and  _255
REMARK  106  A    between atoms: _255  and  _256
REMARK  107  A    between atoms: _255  and  _258
REMARK  108  A    between atoms: _258  and  _259
REMARK  109  A    between atoms: _262  and  _264
REMARK  110  A    between atoms: _264  and  _265
REMARK  111  A    between atoms: _264  and  _267
REMARK  112  A    between atoms: _267  and  _268
REMARK  113  A    between atoms: _268  and  _269
REMARK  114  A    between atoms: _269  and  _270
REMARK  115  A    between atoms: _279  and  _281
REMARK  116  A    between atoms: _281  and  _282
REMARK  117  A    between atoms: _281  and  _284
REMARK  118  A    between atoms: _287  and  _289
REMARK  119  A    between atoms: _289  and  _290
REMARK  120  A    between atoms: _293  and  _295
REMARK  121  A    between atoms: _295  and  _296
REMARK  122  A    between atoms: _299  and  _301
REMARK  123  A    between atoms: _301  and  _302
REMARK  124  A    between atoms: _301  and  _304
REMARK  125  A    between atoms: _304  and  _305
REMARK  126  A    between atoms: _309  and  ZN_429
REMARK  127  A    between atoms: _310  and  _312
REMARK  128  A    between atoms: _312  and  _313
REMARK  129  A    between atoms: _312  and  _315
REMARK  130  A    between atoms: _315  and  _316
REMARK  131  A    between atoms: _316  and  _317
REMARK  132  A    between atoms: _320  and  _322
REMARK  133  A    between atoms: _322  and  _323
REMARK  134  A    between atoms: _322  and  _325
REMARK  135  A    between atoms: _325  and  _326
REMARK  136  A    between atoms: _330  and  ZN_429
REMARK  137  A    between atoms: _331  and  _333
REMARK  138  A    between atoms: _333  and  _334
REMARK  139  A    between atoms: _333  and  _336
REMARK  140  A    between atoms: _336  and  _337
REMARK  141  A    between atoms: _340  and  _342
REMARK  142  A    between atoms: _342  and  _343
REMARK  143  A    between atoms: _342  and  _345
REMARK  144  A    between atoms: _345  and  _346
REMARK  145  A    between atoms: _348  and  _350
REMARK  146  A    between atoms: _350  and  _351
REMARK  147  A    between atoms: _350  and  _353
REMARK  148  A    between atoms: _353  and  _354
REMARK  149  A    between atoms: _358  and  ZN_429
REMARK  150  A    between atoms: _359  and  _361
REMARK  151  A    between atoms: _361  and  _362
REMARK  152  A    between atoms: _361  and  _364
REMARK  153  A    between atoms: _364  and  _365
REMARK  154  A    between atoms: _368  and  _370
REMARK  155  A    between atoms: _370  and  _371
REMARK  156  A    between atoms: _370  and  _373
REMARK  157  A    between atoms: _373  and  _374
REMARK  158  A    between atoms: _374  and  _375
REMARK  159  A    between atoms: _377  and  _379
REMARK  160  A    between atoms: _379  and  _380
REMARK  161  A    between atoms: _379  and  _382
REMARK  162  A    between atoms: _382  and  _383
REMARK  163  A    between atoms: _388  and  _389
REMARK  164  A    between atoms: _392  and  _393
REMARK  165  A    between atoms: _398  and  _400
REMARK  166  A    between atoms: _400  and  _401
REMARK  167  A    between atoms: _400  and  _403
REMARK  168  A    between atoms: _403  and  _404
REMARK  169  A    between atoms: _406  and  _408
REMARK  170  A    between atoms: _408  and  _409
REMARK  171  A    between atoms: _408  and  _411
REMARK  172  A    between atoms: _411  and  _412
REMARK  173  A    between atoms: _417  and  _418
REMARK  174  A    between atoms: _420  and  _422
REMARK  175  A    between atoms: _422  and  _423
REMARK  176  A    between atoms: _422  and  _425
REMARK  177  A    between atoms: _425  and  _426
REMARK                            x       y       z     vdW  Elec       q    Type
REMARK                         _______ _______ _______ _____ _____    ______ ____
ROOT
ATOM      1  C   UNK A   5      36.061  35.689  -3.376  0.00  0.00    +0.000 C 
ENDROOT
BRANCH   1   2
ATOM      2  C   UNK A   5      36.597  36.900  -2.613  0.00  0.00    +0.000 C 
ATOM      3  N   GLU A   6      36.231  36.995  -1.334  0.00  0.00    +0.000 N 
ATOM      4  H   GLU A   6      35.622  36.253  -0.934  0.00  0.00    +0.000 HD
ATOM      5  O   UNK A   5      37.320  37.725  -3.179  0.00  0.00    +0.000 OA
BRANCH   3   6
ATOM      6  CA  GLU A   6      36.648  38.095  -0.471  0.00  0.00    +0.000 C 
BRANCH   6   7
ATOM      7  C   GLU A   6      38.141  38.306  -0.404  0.00  0.00    +0.000 C 
ATOM      8  O   GLU A   6      38.620  39.440  -0.488  0.00  0.00    +0.000 OA
ENDBRANCH   6   7
BRANCH   6   9
ATOM      9  CB  GLU A   6      36.123  37.922   0.950  0.00  0.00    +0.000 C 
BRANCH   9  10
ATOM     10  CG  GLU A   6      34.635  38.032   1.106  0.00  0.00    +0.000 C 
BRANCH  10  11
ATOM     11  CD  GLU A   6      34.063  39.236   0.431  0.00  0.00    +0.000 C 
ATOM     12  OE2 GLU A   6      32.855  39.246   0.171  0.00  0.00    +0.000 OA
ATOM     13  OE1 GLU A   6      34.791  40.181   0.131  0.00  0.00    +0.000 OA
ENDBRANCH  10  11
ENDBRANCH   9  10
ENDBRANCH   6   9
ENDBRANCH   3   6
ENDBRANCH   1   2
BRANCH   1  15
ATOM     14  C   ALA A   4      37.751  34.108  -2.605  0.00  0.00    +0.000 C 
ATOM     15  N   UNK A   5      36.479  34.461  -2.710  0.00  0.00    +0.000 N 
ATOM     16  H   UNK A   5      35.751  33.840  -2.302  0.00  0.00    +0.000 HD
ATOM     17  O   ALA A   4      38.664  34.764  -3.098  0.00  0.00    +0.000 OA
BRANCH  14  18
ATOM     18  CA  ALA A   4      38.021  32.813  -1.843  0.00  0.00    +0.000 C 
ATOM     19  CB  ALA A   4      37.829  31.601  -2.758  0.00  0.00    +0.000 C 
BRANCH  18  22
ATOM     20  C   UNK A   3      37.159  33.602   0.294  0.00  0.00    +0.000 C 
ATOM     21  O   UNK A   3      37.930  34.548   0.290  0.00  0.00    +0.000 OA
ATOM     22  N   ALA A   4      37.142  32.707  -0.679  0.00  0.00    +0.000 N 
ATOM     23  H   ALA A   4      36.484  31.904  -0.615  0.00  0.00    +0.000 HD
BRANCH  20  24
ATOM     24  C   UNK A   3      36.188  33.371   1.445  0.00  0.00    +0.000 C 
ATOM     25  C   UNK A   3      36.716  32.253   2.324  0.00  0.00    +0.000 C 
BRANCH  24  27
ATOM     26  C   SER A   2      34.117  33.802   0.171  0.00  0.00    +0.000 C 
ATOM     27  N   UNK A   3      34.864  33.011   0.942  0.00  0.00    +0.000 N 
ATOM     28  H   UNK A   3      34.480  32.080   1.202  0.00  0.00    +0.000 HD
ATOM     29  O   SER A   2      34.483  34.900  -0.196  0.00  0.00    +0.000 OA
BRANCH  26  30
ATOM     30  CA  SER A   2      32.765  33.242  -0.281  0.00  0.00    +0.000 C 
BRANCH  30  32
ATOM     31  C   UNK A   1      33.333  31.380  -1.731  0.00  0.00    +0.000 C 
ATOM     32  N   SER A   2      32.874  31.819  -0.569  0.00  0.00    +0.000 N 
ATOM     33  H   SER A   2      32.584  31.131   0.155  0.00  0.00    +0.000 HD
ATOM     34  O   UNK A   1      33.672  32.146  -2.622  0.00  0.00    +0.000 OA
BRANCH  31  35
ATOM     35  C   UNK A   1      33.401  29.862  -1.942  0.00  0.00    +0.000 C 
BRANCH  35  36
ATOM     36  N   UNK A   1      33.723  29.130  -0.724  0.00  0.00    +0.000 NA
ATOM     37  H   UNK A   1      32.996  28.527  -0.289  0.00  0.00    +0.000 HD
ENDBRANCH  35  36
BRANCH  35  38
ATOM     38  C   UNK A   1      32.075  29.358  -2.512  0.00  0.00    +0.000 C 
BRANCH  38  39
ATOM     39  C   UNK A   1      31.523  30.164  -3.665  0.00  0.00    +0.000 C 
BRANCH  39  40
ATOM     40  C   UNK A   1      32.518  30.251  -4.807  0.00  0.00    +0.000 C 
BRANCH  40  41
ATOM     41  N   UNK A   1      31.934  30.874  -5.982  0.00  0.00    +0.330 N 
ATOM     42  C   UNK A   1      31.928  32.175  -6.244  0.00  0.00    +0.000 C 
ATOM     43  N   UNK A   1      32.485  33.030  -5.398  0.00  0.00    +0.330 N 
ATOM     44  H   UNK A   1      32.929  32.682  -4.524  0.00  0.00    +0.000 HD
ATOM     45  H   UNK A   1      32.478  34.049  -5.608  0.00  0.00    +0.000 HD
ATOM     46  N   UNK A   1      31.365  32.616  -7.373  0.00  0.00    +0.330 N 
ATOM     47  H   UNK A   1      31.356  33.634  -7.586  0.00  0.00    +0.000 HD
ATOM     48  H   UNK A   1      30.936  31.941  -8.038  0.00  0.00    +0.000 HD
ATOM     49  H   UNK A   1      31.482  30.247  -6.678  0.00  0.00    +0.000 HD
ENDBRANCH  40  41
ENDBRANCH  39  40
ENDBRANCH  38  39
ENDBRANCH  35  38
ENDBRANCH  31  35
ENDBRANCH  30  32
BRANCH  30  50
ATOM     50  CB  SER A   2      31.639  33.495   0.758  0.00  0.00    +0.000 C 
ATOM     51  CG2 SER A   2      31.491  34.983   1.077  0.00  0.00    +0.000 C 
ATOM     52  CG1 SER A   2      30.319  32.954   0.222  0.00  0.00    +0.000 C 
ENDBRANCH  30  50
ENDBRANCH  26  30
ENDBRANCH  24  27
ENDBRANCH  20  24
ENDBRANCH  18  22
ENDBRANCH  14  18
ENDBRANCH   1  15
BRANCH   1  53
ATOM     53  C   UNK A   5      34.543  35.773  -3.429  0.00  0.00    +0.000 C 
BRANCH  53  54
ATOM     54  C   UNK A   5      34.039  37.000  -4.113  0.00  0.00    +0.000 A 
ATOM     55  C   UNK A   5      33.824  38.249  -3.632  0.00  0.00    +0.000 A 
ATOM     56  N   UNK A   5      33.388  39.080  -4.668  0.00  0.00    +0.000 N 
ATOM     57  C   UNK A   5      33.348  38.312  -5.736  0.00  0.00    +0.000 A 
ATOM     58  N   UNK A   5      33.728  37.062  -5.448  0.00  0.00    +0.000 NA
BRANCH  56  59
ATOM     59 ZN   UNK A   1      33.139  41.189  -4.257  0.00  0.00    +0.000 Zn
BRANCH  59  60
ATOM     60  N   UNK A   1      32.856  42.373  -5.829  0.00  0.00    +0.000 N 
ATOM     61  C   UNK A   1      32.096  43.399  -6.162  0.00  0.00    +0.000 A 
ATOM     62  N   UNK A   1      32.205  43.675  -7.467  0.00  0.00    +0.000 NA
ATOM     63  C   UNK A   1      33.094  42.782  -8.019  0.00  0.00    +0.000 A 
ATOM     64  C   UNK A   1      33.487  41.976  -6.998  0.00  0.00    +0.000 A 
BRANCH  63  65
ATOM     65  C   UNK A   1      33.499  42.800  -9.457  0.00  0.00    +0.000 C 
BRANCH  65  66
ATOM     66  C   UNK A   1      34.953  42.380  -9.705  0.00  0.00    +0.000 C 
BRANCH  66  67
ATOM     67  N   UNK A   1      35.911  43.422  -9.310  0.00  0.00    +0.000 N 
ATOM     68  C   SER A   2      37.108  43.091  -8.840  0.00  0.00    +0.000 C 
ATOM     69  O   SER A   2      37.447  41.926  -8.697  0.00  0.00    +0.000 OA
ATOM     70  H   UNK A   1      35.650  44.425  -9.399  0.00  0.00    +0.000 HD
BRANCH  68  71
ATOM     71  CA  SER A   2      38.094  44.208  -8.484  0.00  0.00    +0.000 C 
BRANCH  71  72
ATOM     72  N   SER A   2      39.359  43.505  -8.279  0.00  0.00    +0.000 N 
ATOM     73  C   UNK A   1      39.769  43.087  -7.092  0.00  0.00    +0.000 C 
ATOM     74  O   UNK A   1      39.166  43.289  -6.045  0.00  0.00    +0.000 OA
ATOM     75  H   SER A   2      39.965  43.325  -9.105  0.00  0.00    +0.000 HD
BRANCH  73  76
ATOM     76  C   UNK A   1      41.054  42.328  -7.097  0.00  0.00    +0.000 C 
BRANCH  76  77
ATOM     77  N   UNK A   1      41.914  42.657  -5.967  0.00  0.00    +0.000 NA
ATOM     78  H   UNK A   1      41.961  42.012  -5.152  0.00  0.00    +0.000 HD
ENDBRANCH  76  77
BRANCH  76  79
ATOM     79  C   UNK A   1      40.709  40.845  -7.131  0.00  0.00    +0.000 C 
BRANCH  79  80
ATOM     80  C   UNK A   1      41.762  39.829  -7.571  0.00  0.00    +0.000 C 
ATOM     81  C   UNK A   1      41.045  38.540  -7.912  0.00  0.00    +0.000 C 
ATOM     82  C   UNK A   1      42.516  40.321  -8.774  0.00  0.00    +0.000 C 
ENDBRANCH  79  80
ENDBRANCH  76  79
ENDBRANCH  73  76
ENDBRANCH  71  72
BRANCH  71  83
ATOM     83  CB  SER A   2      38.235  45.186  -9.674  0.00  0.00    +0.000 C 
BRANCH  83  84
ATOM     84  OG  SER A   2      38.844  44.572 -10.822  0.00  0.00    +0.000 OA
ATOM     85  H   SER A   2      38.911  45.236 -11.553  0.00  0.00    +0.000 HD
ENDBRANCH  83  84
ENDBRANCH  71  83
ENDBRANCH  68  71
ENDBRANCH  66  67
BRANCH  66  86
ATOM     86  C   UNK A   1      35.102  42.054 -11.182  0.00  0.00    +0.000 C 
ATOM     87  O   UNK A   3      35.760  42.757 -11.933  0.00  0.00    +0.000 OA
ENDBRANCH  66  86
ENDBRANCH  65  66
ENDBRANCH  63  65
ENDBRANCH  59  60
BRANCH  59  88
ATOM     88  N   UNK A   1      35.092  41.836  -3.886  0.00  0.00    +0.000 N 
ATOM     89  C   UNK A   1      35.843  41.518  -2.768  0.00  0.00    +0.000 A 
ATOM     90  C   UNK A   1      37.091  42.025  -2.910  0.00  0.00    +0.000 A 
ATOM     91  N   UNK A   1      37.098  42.657  -4.129  0.00  0.00    +0.000 NA
ATOM     92  C   UNK A   1      35.897  42.522  -4.670  0.00  0.00    +0.000 A 
BRANCH  90  93
ATOM     93  C   UNK A   1      38.265  41.984  -1.993  0.00  0.00    +0.000 C 
BRANCH  93  94
ATOM     94  C   UNK A   1      39.570  41.700  -2.698  0.00  0.00    +0.000 C 
BRANCH  94  95
ATOM     95  C   UNK A   1      40.692  42.198  -1.831  0.00  0.00    +0.000 C 
ATOM     96  O   UNK A   1      41.246  43.266  -2.075  0.00  0.00    +0.000 OA
ENDBRANCH  94  95
BRANCH  94  97
ATOM     97  N   UNK A   1      39.723  40.271  -2.909  0.00  0.00    +0.000 NA
ATOM     98  H   UNK A   1      39.058  39.626  -2.436  0.00  0.00    +0.000 HD
ENDBRANCH  94  97
ENDBRANCH  93  94
ENDBRANCH  90  93
ENDBRANCH  59  88
ENDBRANCH  56  59
ENDBRANCH  53  54
ENDBRANCH   1  53
TORSDOF 41
REMARK  Name = ../refined-set-2016/1cgl/1cgl_pocket.pdb
REMARK  177 active torsions:
REMARK  status: ('A' for Active; 'I' for Inactive)
REMARK    1  A    between atoms: _1  and  _3
REMARK    2  A    between atoms: _3  and  _4
REMARK    3  A    between atoms: _3  and  _6
REMARK    4  A    between atoms: _6  and  _7
REMARK    5  A    between atoms: _11  and  ZN_430
REMARK    6  A    between atoms: _12  and  _14
REMARK    7  A    between atoms: _14  and  _15
REMARK    8  A    between atoms: _14  and  _17
REMARK    9  A    between atoms: _17  and  _18
REMARK   10  A    between atoms: _18  and  _20
REMARK   11  A    between atoms: _20  and  ZN_430
REMARK   12  A    between atoms: _21  and  _23
REMARK   13  A    between atoms: _23  and  _24
REMARK   14  A    between atoms: _23  and  _26
REMARK   15  A    between atoms: _26  and  _27
REMARK   16  A    between atoms: _32  and  _34
REMARK   17  A    between atoms: _34  and  _35
REMARK   18  A    between atoms: _34  and  _37
REMARK   19  A    between atoms: _37  and  _38
REMARK   20  A    between atoms: _41  and  _42
REMARK   21  A    between atoms: _47  and  _49
REMARK   22  A    between atoms: _49  and  _50
REMARK   23  A    between atoms: _49  and  _52
REMARK   24  A    between atoms: _52  and  _53
REMARK   25  A    between atoms: _59  and  _61
REMARK   26  A    between atoms: _61  and  _62
REMARK   27  A    between atoms: _61  and  _64
REMARK   28  A    between atoms: _64  and  _65
REMARK   29  A    between atoms: _68  and  _70
REMARK   30  A    between atoms: _70  and  _71
REMARK   31  A    between atoms: _73  and  _75
REMARK   32  A    between atoms: _75  and  _76
REMARK   33  A    between atoms: _78  and  _80
REMARK   34  A    between atoms: _80  and  _81
REMARK   35  A    between atoms: _80  and  _83
REMARK   36  A    between atoms: _83  and  _84
REMARK   37  A    between atoms: _89  and  _91
REMARK   38  A    between atoms: _91  and  _92
REMARK   39  A    between atoms: _91  and  _94
REMARK   40  A    between atoms: _94  and  _95
REMARK   41  A    between atoms: _98  and  _100
REMARK   42  A    between atoms: _100  and  _101
REMARK   43  A    between atoms: _104  and  _106
REMARK   44  A    between atoms: _106  and  _107
REMARK   45  A    between atoms: _106  and  _109
REMARK   46  A    between atoms: _109  and  _110
REMARK   47  A    between atoms: _114  and  ZN_430
REMARK   48  A    between atoms: _115  and  _117
REMARK   49  A    between atoms: _117  and  _118
REMARK   50  A    between atoms: _121  and  _123
REMARK   51  A    between atoms: _123  and  _124
REMARK   52  A    between atoms: _123  and  _126
REMARK   53  A    between atoms: _126  and  _127
REMARK   54  A    between atoms: _133  and  _135
REMARK   55  A    between atoms: _135  and  _136
REMARK   56  A    between atoms: _135  and  _138
REMARK   57  A    between atoms: _138  and  _139
REMARK   58  A    between atoms: _142  and  _144
REMARK   59  A    between atoms: _144  and  _145
REMARK   60  A    between atoms: _144  and  _147
REMARK   61  A    between atoms: _147  and  _148
REMARK   62  A    between atoms: _151  and  _153
REMARK   63  A    between atoms: _153  and  _154
REMARK   64  A    between atoms: _153  and  _156
REMARK   65  A    between atoms: _156  and  _157
REMARK   66  A    between atoms: _160  and  _162
REMARK   67  A    between atoms: _162  and  _163
REMARK   68  A    between atoms: _162  and  _165
REMARK   69  A    between atoms: _165  and  _166
REMARK   70  A    between atoms: _167  and  ZN_430
REMARK   71  A    between atoms: _171  and  _173
REMARK   72  A    between atoms: _173  and  _174
REMARK   73  A    between atoms: _173  and  _176
REMARK   74  A    between atoms: _176  and  _177
REMARK   75  A    between atoms: _183  and  _185
REMARK   76  A    between atoms: _185  and  _186
REMARK   77  A    between atoms: _185  and  _188
REMARK   78  A    between atoms: _188  and  _189
REMARK   79  A    between atoms: _189  and  _191
REMARK   80  A    between atoms: _191  and  CA_431
REMARK   81  A    between atoms: _192  and  _194
REMARK   82  A    between atoms: _194  and  _195
REMARK   83  A    between atoms: _194  and  _197
REMARK   84  A    between atoms: _197  and  _198
REMARK   85  A    between atoms: _198  and  _199
REMARK   86  A    between atoms: _199  and  _201
REMARK   87  A    between atoms: _201  and  CA_431
REMARK   88  A    between atoms: _202  and  _204
REMARK   89  A    between atoms: _204  and  _205
REMARK   90  A    between atoms: _204  and  _207
REMARK   91  A    between atoms: _207  and  _208
REMARK   92  A    between atoms: _218  and  _220
REMARK   93  A    between atoms: _220  and  _221
REMARK   94  A    between atoms: _220  and  _223
REMARK   95  A    between atoms: _223  and  _224
REMARK   96  A    between atoms: _224  and  _225
REMARK   97  A    between atoms: _230  and  _231
REMARK   98  A    between atoms: _230  and  _233
REMARK   99  A    between atoms: _233  and  _234
REMARK  100  A    between atoms: _239  and  _240
REMARK  101  A    between atoms: _242  and  _244
REMARK  102  A    between atoms: _244  and  _245
REMARK  103  A    between atoms: _244  and  _247
REMARK  104  A    between atoms: _247  and  _248
REMARK  105  A    between atoms: _253  and  _255
REMARK  106  A    between atoms: _255  and  _256
REMARK  107  A    between atoms: _255  and  _258
REMARK  108  A    between atoms: _258  and  _259
REMARK  109  A    between atoms: _262  and  _264
REMARK  110  A    between atoms: _264  and  _265
REMARK  111  A    between atoms: _264  and  _267
REMARK  112  A    between atoms: _267  and  _268
REMARK  113  A    between atoms: _268  and  _269
REMARK  114  A    between atoms: _269  and  _270
REMARK  115  A    between atoms: _279  and  _281
REMARK  116  A    between atoms: _281  and  _282
REMARK  117  A    between atoms: _281  and  _284
REMARK  118  A    between atoms: _287  and  _289
REMARK  119  A    between atoms: _289  and  _290
REMARK  120  A    between atoms: _293  and  _295
REMARK  121  A    between atoms: _295  and  _296
REMARK  122  A    between atoms: _299  and  _301
REMARK  123  A    between atoms: _301  and  _302
REMARK  124  A    between atoms: _301  and  _304
REMARK  125  A    between atoms: _304  and  _305
REMARK  126  A    between atoms: _309  and  ZN_429
REMARK  127  A    between atoms: _310  and  _312
REMARK  128  A    between atoms: _312  and  _313
REMARK  129  A    between atoms: _312  and  _315
REMARK  130  A    between atoms: _315  and  _316
REMARK  131  A    between atoms: _316  and  _317
REMARK  132  A    between atoms: _320  and  _322
REMARK  133  A    between atoms: _322  and  _323
REMARK  134  A    between atoms: _322  and  _325
REMARK  135  A    between atoms: _325  and  _326
REMARK  136  A    between atoms: _330  and  ZN_429
REMARK  137  A    between atoms: _331  and  _333
REMARK  138  A    between atoms: _333  and  _334
REMARK  139  A    between atoms: _333  and  _336
REMARK  140  A    between atoms: _336  and  _337
REMARK  141  A    between atoms: _340  and  _342
REMARK  142  A    between atoms: _342  and  _343
REMARK  143  A    between atoms: _342  and  _345
REMARK  144  A    between atoms: _345  and  _346
REMARK  145  A    between atoms: _348  and  _350
REMARK  146  A    between atoms: _350  and  _351
REMARK  147  A    between atoms: _350  and  _353
REMARK  148  A    between atoms: _353  and  _354
REMARK  149  A    between atoms: _358  and  ZN_429
REMARK  150  A    between atoms: _359  and  _361
REMARK  151  A    between atoms: _361  and  _362
REMARK  152  A    between atoms: _361  and  _364
REMARK  153  A    between atoms: _364  and  _365
REMARK  154  A    between atoms: _368  and  _370
REMARK  155  A    between atoms: _370  and  _371
REMARK  156  A    between atoms: _370  and  _373
REMARK  157  A    between atoms: _373  and  _374
REMARK  158  A    between atoms: _374  and  _375
REMARK  159  A    between atoms: _377  and  _379
REMARK  160  A    between atoms: _379  and  _380
REMARK  161  A    between atoms: _379  and  _382
REMARK  162  A    between atoms: _382  and  _383
REMARK  163  A    between atoms: _388  and  _389
REMARK  164  A    between atoms: _392  and  _393
REMARK  165  A    between atoms: _398  and  _400
REMARK  166  A    between atoms: _400  and  _401
REMARK  167  A    between atoms: _400  and  _403
REMARK  168  A    between atoms: _403  and  _404
REMARK  169  A    between atoms: _406  and  _408
REMARK  170  A    between atoms: _408  and  _409
REMARK  171  A    between atoms: _408  and  _411
REMARK  172  A    between atoms: _411  and  _412
REMARK  173  A    between atoms: _417  and  _418
REMARK  174  A    between atoms: _420  and  _422
REMARK  175  A    between atoms: _422  and  _423
REMARK  176  A    between atoms: _422  and  _425
REMARK  177  A    between atoms: _425  and  _426
REMARK                            x       y       z     vdW  Elec       q    Type
REMARK                         _______ _______ _______ _____ _____    ______ ____
ROOT
ATOM      1  C   TYR A   3      31.073  38.616  -8.889  0.00  0.00    +0.244 C 
ATOM      2  O   TYR A   3      31.303  38.155  -7.772  0.00  0.00    -0.273 OA
ATOM      3  N   PRO A   4      30.261  39.669  -9.060  0.00  0.00    -0.272 N 
ATOM      4  CA  PRO A   4      29.633  40.276  -7.888  0.00  0.00    +0.152 C 
ATOM      5  CB  PRO A   4      29.118  41.609  -8.435  0.00  0.00    +0.031 C 
ATOM      6  CG  PRO A   4      28.921  41.348  -9.857  0.00  0.00    +0.024 C 
ATOM      7  CD  PRO A   4      30.087  40.517 -10.241  0.00  0.00    +0.094 C 
ENDROOT
BRANCH   4   8
ATOM      8  C   PRO A   4      28.626  39.520  -6.997  0.00  0.00    +0.241 C 
ATOM      9  O   PRO A   4      28.399  39.957  -5.855  0.00  0.00    -0.273 OA
ATOM     10  N   SER A   5      28.006  38.429  -7.469  0.00  0.00    -0.295 N 
ATOM     11  H   SER A   5      28.170  38.121  -8.449  0.00  0.00    +0.150 HD
BRANCH  10  12
ATOM     12  CA  SER A   5      27.095  37.668  -6.604  0.00  0.00    +0.178 C 
BRANCH  12  13
ATOM     13  C   SER A   5      27.492  36.204  -6.469  0.00  0.00    +0.243 C 
ATOM     14  N   TYR A   6      27.059  35.596  -5.363  0.00  0.00    -0.297 N 
ATOM     15  H   TYR A   6      26.469  36.144  -4.705  0.00  0.00    +0.150 HD
ATOM     16  O   SER A   5      28.233  35.669  -7.304  0.00  0.00    -0.273 OA
BRANCH  14  17
ATOM     17  CA  TYR A   6      27.359  34.218  -5.021  0.00  0.00    +0.153 C 
BRANCH  17  18
ATOM     18  C   TYR A   6      26.810  33.217  -6.020  0.00  0.00    +0.241 C 
ATOM     19  N   THR A   7      27.651  32.243  -6.348  0.00  0.00    -0.296 N 
ATOM     20  H   THR A   7      28.598  32.247  -5.918  0.00  0.00    +0.150 HD
ATOM     21  O   TYR A   6      25.667  33.325  -6.477  0.00  0.00    -0.273 OA
BRANCH  19  22
ATOM     22  CA  THR A   7      27.323  31.168  -7.277  0.00  0.00    +0.164 C 
BRANCH  22  23
ATOM     23  CB  THR A   7      27.713  31.533  -8.732  0.00  0.00    +0.136 C 
ATOM     24  CG2 THR A   7      26.859  32.654  -9.278  0.00  0.00    +0.034 C 
BRANCH  23  25
ATOM     25  OG1 THR A   7      29.082  31.942  -8.781  0.00  0.00    -0.382 OA
ATOM     26  HG1 THR A   7      29.658  31.202  -8.464  0.00  0.00    +0.210 HD
ENDBRANCH  23  25
ENDBRANCH  22  23
BRANCH  22  27
ATOM     27  C   THR A   7      28.147  29.960  -6.837  0.00  0.00    +0.229 C 
ATOM     28  O   THR A   7      29.281  30.122  -6.398  0.00  0.00    -0.286 OA
ENDBRANCH  22  27
ENDBRANCH  19  22
ENDBRANCH  17  18
BRANCH  17  29
ATOM     29  CB  TYR A   6      26.858  33.918  -3.601  0.00  0.00    +0.055 C 
BRANCH  29  30
ATOM     30  CG  TYR A   6      26.986  32.461  -3.170  0.00  0.00    -0.020 A 
ATOM     31  CD2 TYR A   6      28.040  32.036  -2.372  0.00  0.00    -0.001 A 
ATOM     32  CE2 TYR A   6      28.145  30.714  -1.977  0.00  0.00    +0.036 A 
ATOM     33  CZ  TYR A   6      27.201  29.798  -2.370  0.00  0.00    +0.134 A 
ATOM     34  CE1 TYR A   6      26.145  30.182  -3.160  0.00  0.00    +0.036 A 
ATOM     35  CD1 TYR A   6      26.038  31.507  -3.558  0.00  0.00    -0.001 A 
BRANCH  33  36
ATOM     36  OH  TYR A   6      27.299  28.502  -1.962  0.00  0.00    -0.506 OA
ATOM     37  HH  TYR A   6      26.543  27.982  -2.333  0.00  0.00    +0.292 HD
ENDBRANCH  33  36
ENDBRANCH  29  30
ENDBRANCH  17  29
ENDBRANCH  14  17
ENDBRANCH  12  13
BRANCH  12  38
ATOM     38  CB  SER A   5      25.629  37.824  -7.008  0.00  0.00    +0.166 C 
BRANCH  38  39
ATOM     39  OG  SER A   5      25.443  37.653  -8.387  0.00  0.00    -0.380 OA
ATOM     40  H   SER A   5      24.484  37.762  -8.605  0.00  0.00    +0.211 HD
ENDBRANCH  38  39
ENDBRANCH  12  38
ENDBRANCH  10  12
ENDBRANCH   4   8
BRANCH   1  41
ATOM     41  CA  TYR A   3      31.734  38.008 -10.130  0.00  0.00    +0.153 C 
BRANCH  41  44
ATOM     42  C   MET A   2      33.996  38.264  -9.195  0.00  0.00    +0.241 C 
ATOM     43  O   MET A   2      33.916  39.478  -9.140  0.00  0.00    -0.273 OA
ATOM     44  N   TYR A   3      33.019  37.486  -9.660  0.00  0.00    -0.297 N 
ATOM     45  H   TYR A   3      33.177  36.458  -9.691  0.00  0.00    +0.150 HD
BRANCH  42  46
ATOM     46  CA  MET A   2      35.238  37.574  -8.700  0.00  0.00    +0.149 C 
BRANCH  46  49
ATOM     47  C   LEU A   1      34.920  35.178  -8.474  0.00  0.00    +0.238 C 
ATOM     48  O   LEU A   1      34.247  35.308  -7.444  0.00  0.00    -0.274 OA
ATOM     49  N   MET A   2      35.434  36.205  -9.148  0.00  0.00    -0.297 N 
ATOM     50  H   MET A   2      35.986  36.024 -10.011  0.00  0.00    +0.150 HD
BRANCH  47  51
ATOM     51  CA  LEU A   1      35.210  33.795  -9.030  0.00  0.00    +0.145 C 
BRANCH  51  52
ATOM     52  N   LEU A   1      35.378  33.808 -10.465  0.00  0.00    -0.238 NA
ATOM     53  H   LEU A   1      36.336  33.746 -10.866  0.00  0.00    +0.142 HD
ENDBRANCH  51  52
BRANCH  51  54
ATOM     54  CB  LEU A   1      36.461  33.250  -8.362  0.00  0.00    +0.026 C 
BRANCH  54  55
ATOM     55  CG  LEU A   1      36.138  32.326  -7.208  0.00  0.00    +0.002 C 
ATOM     56  CD2 LEU A   1      37.272  32.349  -6.204  0.00  0.00    +0.000 C 
ATOM     57  CD1 LEU A   1      35.943  30.932  -7.783  0.00  0.00    +0.000 C 
ENDBRANCH  54  55
ENDBRANCH  51  54
ENDBRANCH  47  51
ENDBRANCH  46  49
BRANCH  46  58
ATOM     58  CB  MET A   2      36.466  38.442  -8.975  0.00  0.00    +0.041 C 
BRANCH  58  59
ATOM     59  CG  MET A   2      37.741  38.008  -8.252  0.00  0.00    +0.060 C 
BRANCH  59  60
ATOM     60  SD  MET A   2      37.652  37.899  -6.448  0.00  0.00    -0.139 S 
ATOM     61  CE  MET A   2      36.942  39.469  -6.027  0.00  0.00    +0.069 C 
ENDBRANCH  59  60
ENDBRANCH  58  59
ENDBRANCH  46  58
ENDBRANCH  42  46
ENDBRANCH  41  44
BRANCH  41  62
ATOM     62  CB  TYR A   3      30.899  36.868 -10.706  0.00  0.00    +0.055 C 
BRANCH  62  63
ATOM     63  CG  TYR A   3      29.600  37.293 -11.306  0.00  0.00    -0.020 A 
ATOM     64  CD2 TYR A   3      28.404  36.961 -10.690  0.00  0.00    -0.001 A 
ATOM     65  CE2 TYR A   3      27.171  37.344 -11.238  0.00  0.00    +0.036 A 
ATOM     66  CZ  TYR A   3      27.128  38.070 -12.423  0.00  0.00    +0.134 A 
ATOM     67  CE1 TYR A   3      28.328  38.412 -13.061  0.00  0.00    +0.036 A 
ATOM     68  CD1 TYR A   3      29.554  38.021 -12.495  0.00  0.00    -0.001 A 
BRANCH  66  69
ATOM     69  OH  TYR A   3      25.893  38.447 -12.938  0.00  0.00    -0.506 OA
ATOM     70  HH  TYR A   3      25.353  37.638 -13.122  0.00  0.00    +0.292 HD
ENDBRANCH  66  69
ENDBRANCH  62  63
ENDBRANCH  41  62
ENDBRANCH   1  41
TORSDOF 28
REMARK  Name = ../refined-set-2016/1cgl/1cgl_pocket.pdb
REMARK  177 active torsions:
REMARK  status: ('A' for Active; 'I' for Inactive)
REMARK    1  A    between atoms: _1  and  _3
REMARK    2  A    between atoms: _3  and  _4
REMARK    3  A    between atoms: _3  and  _6
REMARK    4  A    between atoms: _6  and  _7
REMARK    5  A    between atoms: _11  and  ZN_430
REMARK    6  A    between atoms: _12  and  _14
REMARK    7  A    between atoms: _14  and  _15
REMARK    8  A    between atoms: _14  and  _17
REMARK    9  A    between atoms: _17  and  _18
REMARK   10  A    between atoms: _18  and  _20
REMARK   11  A    between atoms: _20  and  ZN_430
REMARK   12  A    between atoms: _21  and  _23
REMARK   13  A    between atoms: _23  and  _24
REMARK   14  A    between atoms: _23  and  _26
REMARK   15  A    between atoms: _26  and  _27
REMARK   16  A    between atoms: _32  and  _34
REMARK   17  A    between atoms: _34  and  _35
REMARK   18  A    between atoms: _34  and  _37
REMARK   19  A    between atoms: _37  and  _38
REMARK   20  A    between atoms: _41  and  _42
REMARK   21  A    between atoms: _47  and  _49
REMARK   22  A    between atoms: _49  and  _50
REMARK   23  A    between atoms: _49  and  _52
REMARK   24  A    between atoms: _52  and  _53
REMARK   25  A    between atoms: _59  and  _61
REMARK   26  A    between atoms: _61  and  _62
REMARK   27  A    between atoms: _61  and  _64
REMARK   28  A    between atoms: _64  and  _65
REMARK   29  A    between atoms: _68  and  _70
REMARK   30  A    between atoms: _70  and  _71
REMARK   31  A    between atoms: _73  and  _75
REMARK   32  A    between atoms: _75  and  _76
REMARK   33  A    between atoms: _78  and  _80
REMARK   34  A    between atoms: _80  and  _81
REMARK   35  A    between atoms: _80  and  _83
REMARK   36  A    between atoms: _83  and  _84
REMARK   37  A    between atoms: _89  and  _91
REMARK   38  A    between atoms: _91  and  _92
REMARK   39  A    between atoms: _91  and  _94
REMARK   40  A    between atoms: _94  and  _95
REMARK   41  A    between atoms: _98  and  _100
REMARK   42  A    between atoms: _100  and  _101
REMARK   43  A    between atoms: _104  and  _106
REMARK   44  A    between atoms: _106  and  _107
REMARK   45  A    between atoms: _106  and  _109
REMARK   46  A    between atoms: _109  and  _110
REMARK   47  A    between atoms: _114  and  ZN_430
REMARK   48  A    between atoms: _115  and  _117
REMARK   49  A    between atoms: _117  and  _118
REMARK   50  A    between atoms: _121  and  _123
REMARK   51  A    between atoms: _123  and  _124
REMARK   52  A    between atoms: _123  and  _126
REMARK   53  A    between atoms: _126  and  _127
REMARK   54  A    between atoms: _133  and  _135
REMARK   55  A    between atoms: _135  and  _136
REMARK   56  A    between atoms: _135  and  _138
REMARK   57  A    between atoms: _138  and  _139
REMARK   58  A    between atoms: _142  and  _144
REMARK   59  A    between atoms: _144  and  _145
REMARK   60  A    between atoms: _144  and  _147
REMARK   61  A    between atoms: _147  and  _148
REMARK   62  A    between atoms: _151  and  _153
REMARK   63  A    between atoms: _153  and  _154
REMARK   64  A    between atoms: _153  and  _156
REMARK   65  A    between atoms: _156  and  _157
REMARK   66  A    between atoms: _160  and  _162
REMARK   67  A    between atoms: _162  and  _163
REMARK   68  A    between atoms: _162  and  _165
REMARK   69  A    between atoms: _165  and  _166
REMARK   70  A    between atoms: _167  and  ZN_430
REMARK   71  A    between atoms: _171  and  _173
REMARK   72  A    between atoms: _173  and  _174
REMARK   73  A    between atoms: _173  and  _176
REMARK   74  A    between atoms: _176  and  _177
REMARK   75  A    between atoms: _183  and  _185
REMARK   76  A    between atoms: _185  and  _186
REMARK   77  A    between atoms: _185  and  _188
REMARK   78  A    between atoms: _188  and  _189
REMARK   79  A    between atoms: _189  and  _191
REMARK   80  A    between atoms: _191  and  CA_431
REMARK   81  A    between atoms: _192  and  _194
REMARK   82  A    between atoms: _194  and  _195
REMARK   83  A    between atoms: _194  and  _197
REMARK   84  A    between atoms: _197  and  _198
REMARK   85  A    between atoms: _198  and  _199
REMARK   86  A    between atoms: _199  and  _201
REMARK   87  A    between atoms: _201  and  CA_431
REMARK   88  A    between atoms: _202  and  _204
REMARK   89  A    between atoms: _204  and  _205
REMARK   90  A    between atoms: _204  and  _207
REMARK   91  A    between atoms: _207  and  _208
REMARK   92  A    between atoms: _218  and  _220
REMARK   93  A    between atoms: _220  and  _221
REMARK   94  A    between atoms: _220  and  _223
REMARK   95  A    between atoms: _223  and  _224
REMARK   96  A    between atoms: _224  and  _225
REMARK   97  A    between atoms: _230  and  _231
REMARK   98  A    between atoms: _230  and  _233
REMARK   99  A    between atoms: _233  and  _234
REMARK  100  A    between atoms: _239  and  _240
REMARK  101  A    between atoms: _242  and  _244
REMARK  102  A    between atoms: _244  and  _245
REMARK  103  A    between atoms: _244  and  _247
REMARK  104  A    between atoms: _247  and  _248
REMARK  105  A    between atoms: _253  and  _255
REMARK  106  A    between atoms: _255  and  _256
REMARK  107  A    between atoms: _255  and  _258
REMARK  108  A    between atoms: _258  and  _259
REMARK  109  A    between atoms: _262  and  _264
REMARK  110  A    between atoms: _264  and  _265
REMARK  111  A    between atoms: _264  and  _267
REMARK  112  A    between atoms: _267  and  _268
REMARK  113  A    between atoms: _268  and  _269
REMARK  114  A    between atoms: _269  and  _270
REMARK  115  A    between atoms: _279  and  _281
REMARK  116  A    between atoms: _281  and  _282
REMARK  117  A    between atoms: _281  and  _284
REMARK  118  A    between atoms: _287  and  _289
REMARK  119  A    between atoms: _289  and  _290
REMARK  120  A    between atoms: _293  and  _295
REMARK  121  A    between atoms: _295  and  _296
REMARK  122  A    between atoms: _299  and  _301
REMARK  123  A    between atoms: _301  and  _302
REMARK  124  A    between atoms: _301  and  _304
REMARK  125  A    between atoms: _304  and  _305
REMARK  126  A    between atoms: _309  and  ZN_429
REMARK  127  A    between atoms: _310  and  _312
REMARK  128  A    between atoms: _312  and  _313
REMARK  129  A    between atoms: _312  and  _315
REMARK  130  A    between atoms: _315  and  _316
REMARK  131  A    between atoms: _316  and  _317
REMARK  132  A    between atoms: _320  and  _322
REMARK  133  A    between atoms: _322  and  _323
REMARK  134  A    between atoms: _322  and  _325
REMARK  135  A    between atoms: _325  and  _326
REMARK  136  A    between atoms: _330  and  ZN_429
REMARK  137  A    between atoms: _331  and  _333
REMARK  138  A    between atoms: _333  and  _334
REMARK  139  A    between atoms: _333  and  _336
REMARK  140  A    between atoms: _336  and  _337
REMARK  141  A    between atoms: _340  and  _342
REMARK  142  A    between atoms: _342  and  _343
REMARK  143  A    between atoms: _342  and  _345
REMARK  144  A    between atoms: _345  and  _346
REMARK  145  A    between atoms: _348  and  _350
REMARK  146  A    between atoms: _350  and  _351
REMARK  147  A    between atoms: _350  and  _353
REMARK  148  A    between atoms: _353  and  _354
REMARK  149  A    between atoms: _358  and  ZN_429
REMARK  150  A    between atoms: _359  and  _361
REMARK  151  A    between atoms: _361  and  _362
REMARK  152  A    between atoms: _361  and  _364
REMARK  153  A    between atoms: _364  and  _365
REMARK  154  A    between atoms: _368  and  _370
REMARK  155  A    between atoms: _370  and  _371
REMARK  156  A    between atoms: _370  and  _373
REMARK  157  A    between atoms: _373  and  _374
REMARK  158  A    between atoms: _374  and  _375
REMARK  159  A    between atoms: _377  and  _379
REMARK  160  A    between atoms: _379  and  _380
REMARK  161  A    between atoms: _379  and  _382
REMARK  162  A    between atoms: _382  and  _383
REMARK  163  A    between atoms: _388  and  _389
REMARK  164  A    between atoms: _392  and  _393
REMARK  165  A    between atoms: _398  and  _400
REMARK  166  A    between atoms: _400  and  _401
REMARK  167  A    between atoms: _400  and  _403
REMARK  168  A    between atoms: _403  and  _404
REMARK  169  A    between atoms: _406  and  _408
REMARK  170  A    between atoms: _408  and  _409
REMARK  171  A    between atoms: _408  and  _411
REMARK  172  A    between atoms: _411  and  _412
REMARK  173  A    between atoms: _417  and  _418
REMARK  174  A    between atoms: _420  and  _422
REMARK  175  A    between atoms: _422  and  _423
REMARK  176  A    between atoms: _422  and  _425
REMARK  177  A    between atoms: _425  and  _426
REMARK                            x       y       z     vdW  Elec       q    Type
REMARK                         _______ _______ _______ _____ _____    ______ ____
ROOT
ATOM      1  O   HOH     1      31.263  35.145  -6.972  0.00  0.00    +0.000 OA
ENDROOT
TORSDOF 0
REMARK  Name = ../refined-set-2016/1cgl/1cgl_pocket.pdb
REMARK  177 active torsions:
REMARK  status: ('A' for Active; 'I' for Inactive)
REMARK    1  A    between atoms: _1  and  _3
REMARK    2  A    between atoms: _3  and  _4
REMARK    3  A    between atoms: _3  and  _6
REMARK    4  A    between atoms: _6  and  _7
REMARK    5  A    between atoms: _11  and  ZN_430
REMARK    6  A    between atoms: _12  and  _14
REMARK    7  A    between atoms: _14  and  _15
REMARK    8  A    between atoms: _14  and  _17
REMARK    9  A    between atoms: _17  and  _18
REMARK   10  A    between atoms: _18  and  _20
REMARK   11  A    between atoms: _20  and  ZN_430
REMARK   12  A    between atoms: _21  and  _23
REMARK   13  A    between atoms: _23  and  _24
REMARK   14  A    between atoms: _23  and  _26
REMARK   15  A    between atoms: _26  and  _27
REMARK   16  A    between atoms: _32  and  _34
REMARK   17  A    between atoms: _34  and  _35
REMARK   18  A    between atoms: _34  and  _37
REMARK   19  A    between atoms: _37  and  _38
REMARK   20  A    between atoms: _41  and  _42
REMARK   21  A    between atoms: _47  and  _49
REMARK   22  A    between atoms: _49  and  _50
REMARK   23  A    between atoms: _49  and  _52
REMARK   24  A    between atoms: _52  and  _53
REMARK   25  A    between atoms: _59  and  _61
REMARK   26  A    between atoms: _61  and  _62
REMARK   27  A    between atoms: _61  and  _64
REMARK   28  A    between atoms: _64  and  _65
REMARK   29  A    between atoms: _68  and  _70
REMARK   30  A    between atoms: _70  and  _71
REMARK   31  A    between atoms: _73  and  _75
REMARK   32  A    between atoms: _75  and  _76
REMARK   33  A    between atoms: _78  and  _80
REMARK   34  A    between atoms: _80  and  _81
REMARK   35  A    between atoms: _80  and  _83
REMARK   36  A    between atoms: _83  and  _84
REMARK   37  A    between atoms: _89  and  _91
REMARK   38  A    between atoms: _91  and  _92
REMARK   39  A    between atoms: _91  and  _94
REMARK   40  A    between atoms: _94  and  _95
REMARK   41  A    between atoms: _98  and  _100
REMARK   42  A    between atoms: _100  and  _101
REMARK   43  A    between atoms: _104  and  _106
REMARK   44  A    between atoms: _106  and  _107
REMARK   45  A    between atoms: _106  and  _109
REMARK   46  A    between atoms: _109  and  _110
REMARK   47  A    between atoms: _114  and  ZN_430
REMARK   48  A    between atoms: _115  and  _117
REMARK   49  A    between atoms: _117  and  _118
REMARK   50  A    between atoms: _121  and  _123
REMARK   51  A    between atoms: _123  and  _124
REMARK   52  A    between atoms: _123  and  _126
REMARK   53  A    between atoms: _126  and  _127
REMARK   54  A    between atoms: _133  and  _135
REMARK   55  A    between atoms: _135  and  _136
REMARK   56  A    between atoms: _135  and  _138
REMARK   57  A    between atoms: _138  and  _139
REMARK   58  A    between atoms: _142  and  _144
REMARK   59  A    between atoms: _144  and  _145
REMARK   60  A    between atoms: _144  and  _147
REMARK   61  A    between atoms: _147  and  _148
REMARK   62  A    between atoms: _151  and  _153
REMARK   63  A    between atoms: _153  and  _154
REMARK   64  A    between atoms: _153  and  _156
REMARK   65  A    between atoms: _156  and  _157
REMARK   66  A    between atoms: _160  and  _162
REMARK   67  A    between atoms: _162  and  _163
REMARK   68  A    between atoms: _162  and  _165
REMARK   69  A    between atoms: _165  and  _166
REMARK   70  A    between atoms: _167  and  ZN_430
REMARK   71  A    between atoms: _171  and  _173
REMARK   72  A    between atoms: _173  and  _174
REMARK   73  A    between atoms: _173  and  _176
REMARK   74  A    between atoms: _176  and  _177
REMARK   75  A    between atoms: _183  and  _185
REMARK   76  A    between atoms: _185  and  _186
REMARK   77  A    between atoms: _185  and  _188
REMARK   78  A    between atoms: _188  and  _189
REMARK   79  A    between atoms: _189  and  _191
REMARK   80  A    between atoms: _191  and  CA_431
REMARK   81  A    between atoms: _192  and  _194
REMARK   82  A    between atoms: _194  and  _195
REMARK   83  A    between atoms: _194  and  _197
REMARK   84  A    between atoms: _197  and  _198
REMARK   85  A    between atoms: _198  and  _199
REMARK   86  A    between atoms: _199  and  _201
REMARK   87  A    between atoms: _201  and  CA_431
REMARK   88  A    between atoms: _202  and  _204
REMARK   89  A    between atoms: _204  and  _205
REMARK   90  A    between atoms: _204  and  _207
REMARK   91  A    between atoms: _207  and  _208
REMARK   92  A    between atoms: _218  and  _220
REMARK   93  A    between atoms: _220  and  _221
REMARK   94  A    between atoms: _220  and  _223
REMARK   95  A    between atoms: _223  and  _224
REMARK   96  A    between atoms: _224  and  _225
REMARK   97  A    between atoms: _230  and  _231
REMARK   98  A    between atoms: _230  and  _233
REMARK   99  A    between atoms: _233  and  _234
REMARK  100  A    between atoms: _239  and  _240
REMARK  101  A    between atoms: _242  and  _244
REMARK  102  A    between atoms: _244  and  _245
REMARK  103  A    between atoms: _244  and  _247
REMARK  104  A    between atoms: _247  and  _248
REMARK  105  A    between atoms: _253  and  _255
REMARK  106  A    between atoms: _255  and  _256
REMARK  107  A    between atoms: _255  and  _258
REMARK  108  A    between atoms: _258  and  _259
REMARK  109  A    between atoms: _262  and  _264
REMARK  110  A    between atoms: _264  and  _265
REMARK  111  A    between atoms: _264  and  _267
REMARK  112  A    between atoms: _267  and  _268
REMARK  113  A    between atoms: _268  and  _269
REMARK  114  A    between atoms: _269  and  _270
REMARK  115  A    between atoms: _279  and  _281
REMARK  116  A    between atoms: _281  and  _282
REMARK  117  A    between atoms: _281  and  _284
REMARK  118  A    between atoms: _287  and  _289
REMARK  119  A    between atoms: _289  and  _290
REMARK  120  A    between atoms: _293  and  _295
REMARK  121  A    between atoms: _295  and  _296
REMARK  122  A    between atoms: _299  and  _301
REMARK  123  A    between atoms: _301  and  _302
REMARK  124  A    between atoms: _301  and  _304
REMARK  125  A    between atoms: _304  and  _305
REMARK  126  A    between atoms: _309  and  ZN_429
REMARK  127  A    between atoms: _310  and  _312
REMARK  128  A    between atoms: _312  and  _313
REMARK  129  A    between atoms: _312  and  _315
REMARK  130  A    between atoms: _315  and  _316
REMARK  131  A    between atoms: _316  and  _317
REMARK  132  A    between atoms: _320  and  _322
REMARK  133  A    between atoms: _322  and  _323
REMARK  134  A    between atoms: _322  and  _325
REMARK  135  A    between atoms: _325  and  _326
REMARK  136  A    between atoms: _330  and  ZN_429
REMARK  137  A    between atoms: _331  and  _333
REMARK  138  A    between atoms: _333  and  _334
REMARK  139  A    between atoms: _333  and  _336
REMARK  140  A    between atoms: _336  and  _337
REMARK  141  A    between atoms: _340  and  _342
REMARK  142  A    between atoms: _342  and  _343
REMARK  143  A    between atoms: _342  and  _345
REMARK  144  A    between atoms: _345  and  _346
REMARK  145  A    between atoms: _348  and  _350
REMARK  146  A    between atoms: _350  and  _351
REMARK  147  A    between atoms: _350  and  _353
REMARK  148  A    between atoms: _353  and  _354
REMARK  149  A    between atoms: _358  and  ZN_429
REMARK  150  A    between atoms: _359  and  _361
REMARK  151  A    between atoms: _361  and  _362
REMARK  152  A    between atoms: _361  and  _364
REMARK  153  A    between atoms: _364  and  _365
REMARK  154  A    between atoms: _368  and  _370
REMARK  155  A    between atoms: _370  and  _371
REMARK  156  A    between atoms: _370  and  _373
REMARK  157  A    between atoms: _373  and  _374
REMARK  158  A    between atoms: _374  and  _375
REMARK  159  A    between atoms: _377  and  _379
REMARK  160  A    between atoms: _379  and  _380
REMARK  161  A    between atoms: _379  and  _382
REMARK  162  A    between atoms: _382  and  _383
REMARK  163  A    between atoms: _388  and  _389
REMARK  164  A    between atoms: _392  and  _393
REMARK  165  A    between atoms: _398  and  _400
REMARK  166  A    between atoms: _400  and  _401
REMARK  167  A    between atoms: _400  and  _403
REMARK  168  A    between atoms: _403  and  _404
REMARK  169  A    between atoms: _406  and  _408
REMARK  170  A    between atoms: _408  and  _409
REMARK  171  A    between atoms: _408  and  _411
REMARK  172  A    between atoms: _411  and  _412
REMARK  173  A    between atoms: _417  and  _418
REMARK  174  A    between atoms: _420  and  _422
REMARK  175  A    between atoms: _422  and  _423
REMARK  176  A    between atoms: _422  and  _425
REMARK  177  A    between atoms: _425  and  _426
REMARK                            x       y       z     vdW  Elec       q    Type
REMARK                         _______ _______ _______ _____ _____    ______ ____
ROOT
ATOM      1  O   HOH     1      23.274  38.577 -13.135  0.00  0.00    +0.000 OA
ENDROOT
TORSDOF 0
REMARK  Name = ../refined-set-2016/1cgl/1cgl_pocket.pdb
REMARK  177 active torsions:
REMARK  status: ('A' for Active; 'I' for Inactive)
REMARK    1  A    between atoms: _1  and  _3
REMARK    2  A    between atoms: _3  and  _4
REMARK    3  A    between atoms: _3  and  _6
REMARK    4  A    between atoms: _6  and  _7
REMARK    5  A    between atoms: _11  and  ZN_430
REMARK    6  A    between atoms: _12  and  _14
REMARK    7  A    between atoms: _14  and  _15
REMARK    8  A    between atoms: _14  and  _17
REMARK    9  A    between atoms: _17  and  _18
REMARK   10  A    between atoms: _18  and  _20
REMARK   11  A    between atoms: _20  and  ZN_430
REMARK   12  A    between atoms: _21  and  _23
REMARK   13  A    between atoms: _23  and  _24
REMARK   14  A    between atoms: _23  and  _26
REMARK   15  A    between atoms: _26  and  _27
REMARK   16  A    between atoms: _32  and  _34
REMARK   17  A    between atoms: _34  and  _35
REMARK   18  A    between atoms: _34  and  _37
REMARK   19  A    between atoms: _37  and  _38
REMARK   20  A    between atoms: _41  and  _42
REMARK   21  A    between atoms: _47  and  _49
REMARK   22  A    between atoms: _49  and  _50
REMARK   23  A    between atoms: _49  and  _52
REMARK   24  A    between atoms: _52  and  _53
REMARK   25  A    between atoms: _59  and  _61
REMARK   26  A    between atoms: _61  and  _62
REMARK   27  A    between atoms: _61  and  _64
REMARK   28  A    between atoms: _64  and  _65
REMARK   29  A    between atoms: _68  and  _70
REMARK   30  A    between atoms: _70  and  _71
REMARK   31  A    between atoms: _73  and  _75
REMARK   32  A    between atoms: _75  and  _76
REMARK   33  A    between atoms: _78  and  _80
REMARK   34  A    between atoms: _80  and  _81
REMARK   35  A    between atoms: _80  and  _83
REMARK   36  A    between atoms: _83  and  _84
REMARK   37  A    between atoms: _89  and  _91
REMARK   38  A    between atoms: _91  and  _92
REMARK   39  A    between atoms: _91  and  _94
REMARK   40  A    between atoms: _94  and  _95
REMARK   41  A    between atoms: _98  and  _100
REMARK   42  A    between atoms: _100  and  _101
REMARK   43  A    between atoms: _104  and  _106
REMARK   44  A    between atoms: _106  and  _107
REMARK   45  A    between atoms: _106  and  _109
REMARK   46  A    between atoms: _109  and  _110
REMARK   47  A    between atoms: _114  and  ZN_430
REMARK   48  A    between atoms: _115  and  _117
REMARK   49  A    between atoms: _117  and  _118
REMARK   50  A    between atoms: _121  and  _123
REMARK   51  A    between atoms: _123  and  _124
REMARK   52  A    between atoms: _123  and  _126
REMARK   53  A    between atoms: _126  and  _127
REMARK   54  A    between atoms: _133  and  _135
REMARK   55  A    between atoms: _135  and  _136
REMARK   56  A    between atoms: _135  and  _138
REMARK   57  A    between atoms: _138  and  _139
REMARK   58  A    between atoms: _142  and  _144
REMARK   59  A    between atoms: _144  and  _145
REMARK   60  A    between atoms: _144  and  _147
REMARK   61  A    between atoms: _147  and  _148
REMARK   62  A    between atoms: _151  and  _153
REMARK   63  A    between atoms: _153  and  _154
REMARK   64  A    between atoms: _153  and  _156
REMARK   65  A    between atoms: _156  and  _157
REMARK   66  A    between atoms: _160  and  _162
REMARK   67  A    between atoms: _162  and  _163
REMARK   68  A    between atoms: _162  and  _165
REMARK   69  A    between atoms: _165  and  _166
REMARK   70  A    between atoms: _167  and  ZN_430
REMARK   71  A    between atoms: _171  and  _173
REMARK   72  A    between atoms: _173  and  _174
REMARK   73  A    between atoms: _173  and  _176
REMARK   74  A    between atoms: _176  and  _177
REMARK   75  A    between atoms: _183  and  _185
REMARK   76  A    between atoms: _185  and  _186
REMARK   77  A    between atoms: _185  and  _188
REMARK   78  A    between atoms: _188  and  _189
REMARK   79  A    between atoms: _189  and  _191
REMARK   80  A    between atoms: _191  and  CA_431
REMARK   81  A    between atoms: _192  and  _194
REMARK   82  A    between atoms: _194  and  _195
REMARK   83  A    between atoms: _194  and  _197
REMARK   84  A    between atoms: _197  and  _198
REMARK   85  A    between atoms: _198  and  _199
REMARK   86  A    between atoms: _199  and  _201
REMARK   87  A    between atoms: _201  and  CA_431
REMARK   88  A    between atoms: _202  and  _204
REMARK   89  A    between atoms: _204  and  _205
REMARK   90  A    between atoms: _204  and  _207
REMARK   91  A    between atoms: _207  and  _208
REMARK   92  A    between atoms: _218  and  _220
REMARK   93  A    between atoms: _220  and  _221
REMARK   94  A    between atoms: _220  and  _223
REMARK   95  A    between atoms: _223  and  _224
REMARK   96  A    between atoms: _224  and  _225
REMARK   97  A    between atoms: _230  and  _231
REMARK   98  A    between atoms: _230  and  _233
REMARK   99  A    between atoms: _233  and  _234
REMARK  100  A    between atoms: _239  and  _240
REMARK  101  A    between atoms: _242  and  _244
REMARK  102  A    between atoms: _244  and  _245
REMARK  103  A    between atoms: _244  and  _247
REMARK  104  A    between atoms: _247  and  _248
REMARK  105  A    between atoms: _253  and  _255
REMARK  106  A    between atoms: _255  and  _256
REMARK  107  A    between atoms: _255  and  _258
REMARK  108  A    between atoms: _258  and  _259
REMARK  109  A    between atoms: _262  and  _264
REMARK  110  A    between atoms: _264  and  _265
REMARK  111  A    between atoms: _264  and  _267
REMARK  112  A    between atoms: _267  and  _268
REMARK  113  A    between atoms: _268  and  _269
REMARK  114  A    between atoms: _269  and  _270
REMARK  115  A    between atoms: _279  and  _281
REMARK  116  A    between atoms: _281  and  _282
REMARK  117  A    between atoms: _281  and  _284
REMARK  118  A    between atoms: _287  and  _289
REMARK  119  A    between atoms: _289  and  _290
REMARK  120  A    between atoms: _293  and  _295
REMARK  121  A    between atoms: _295  and  _296
REMARK  122  A    between atoms: _299  and  _301
REMARK  123  A    between atoms: _301  and  _302
REMARK  124  A    between atoms: _301  and  _304
REMARK  125  A    between atoms: _304  and  _305
REMARK  126  A    between atoms: _309  and  ZN_429
REMARK  127  A    between atoms: _310  and  _312
REMARK  128  A    between atoms: _312  and  _313
REMARK  129  A    between atoms: _312  and  _315
REMARK  130  A    between atoms: _315  and  _316
REMARK  131  A    between atoms: _316  and  _317
REMARK  132  A    between atoms: _320  and  _322
REMARK  133  A    between atoms: _322  and  _323
REMARK  134  A    between atoms: _322  and  _325
REMARK  135  A    between atoms: _325  and  _326
REMARK  136  A    between atoms: _330  and  ZN_429
REMARK  137  A    between atoms: _331  and  _333
REMARK  138  A    between atoms: _333  and  _334
REMARK  139  A    between atoms: _333  and  _336
REMARK  140  A    between atoms: _336  and  _337
REMARK  141  A    between atoms: _340  and  _342
REMARK  142  A    between atoms: _342  and  _343
REMARK  143  A    between atoms: _342  and  _345
REMARK  144  A    between atoms: _345  and  _346
REMARK  145  A    between atoms: _348  and  _350
REMARK  146  A    between atoms: _350  and  _351
REMARK  147  A    between atoms: _350  and  _353
REMARK  148  A    between atoms: _353  and  _354
REMARK  149  A    between atoms: _358  and  ZN_429
REMARK  150  A    between atoms: _359  and  _361
REMARK  151  A    between atoms: _361  and  _362
REMARK  152  A    between atoms: _361  and  _364
REMARK  153  A    between atoms: _364  and  _365
REMARK  154  A    between atoms: _368  and  _370
REMARK  155  A    between atoms: _370  and  _371
REMARK  156  A    between atoms: _370  and  _373
REMARK  157  A    between atoms: _373  and  _374
REMARK  158  A    between atoms: _374  and  _375
REMARK  159  A    between atoms: _377  and  _379
REMARK  160  A    between atoms: _379  and  _380
REMARK  161  A    between atoms: _379  and  _382
REMARK  162  A    between atoms: _382  and  _383
REMARK  163  A    between atoms: _388  and  _389
REMARK  164  A    between atoms: _392  and  _393
REMARK  165  A    between atoms: _398  and  _400
REMARK  166  A    between atoms: _400  and  _401
REMARK  167  A    between atoms: _400  and  _403
REMARK  168  A    between atoms: _403  and  _404
REMARK  169  A    between atoms: _406  and  _408
REMARK  170  A    between atoms: _408  and  _409
REMARK  171  A    between atoms: _408  and  _411
REMARK  172  A    between atoms: _411  and  _412
REMARK  173  A    between atoms: _417  and  _418
REMARK  174  A    between atoms: _420  and  _422
REMARK  175  A    between atoms: _422  and  _423
REMARK  176  A    between atoms: _422  and  _425
REMARK  177  A    between atoms: _425  and  _426
REMARK                            x       y       z     vdW  Elec       q    Type
REMARK                         _______ _______ _______ _____ _____    ______ ____
ROOT
ATOM      1  O   HOH     1      34.280  43.202  -0.356  0.00  0.00    +0.000 OA
ENDROOT
TORSDOF 0
REMARK  Name = ../refined-set-2016/1cgl/1cgl_pocket.pdb
REMARK  177 active torsions:
REMARK  status: ('A' for Active; 'I' for Inactive)
REMARK    1  A    between atoms: _1  and  _3
REMARK    2  A    between atoms: _3  and  _4
REMARK    3  A    between atoms: _3  and  _6
REMARK    4  A    between atoms: _6  and  _7
REMARK    5  A    between atoms: _11  and  ZN_430
REMARK    6  A    between atoms: _12  and  _14
REMARK    7  A    between atoms: _14  and  _15
REMARK    8  A    between atoms: _14  and  _17
REMARK    9  A    between atoms: _17  and  _18
REMARK   10  A    between atoms: _18  and  _20
REMARK   11  A    between atoms: _20  and  ZN_430
REMARK   12  A    between atoms: _21  and  _23
REMARK   13  A    between atoms: _23  and  _24
REMARK   14  A    between atoms: _23  and  _26
REMARK   15  A    between atoms: _26  and  _27
REMARK   16  A    between atoms: _32  and  _34
REMARK   17  A    between atoms: _34  and  _35
REMARK   18  A    between atoms: _34  and  _37
REMARK   19  A    between atoms: _37  and  _38
REMARK   20  A    between atoms: _41  and  _42
REMARK   21  A    between atoms: _47  and  _49
REMARK   22  A    between atoms: _49  and  _50
REMARK   23  A    between atoms: _49  and  _52
REMARK   24  A    between atoms: _52  and  _53
REMARK   25  A    between atoms: _59  and  _61
REMARK   26  A    between atoms: _61  and  _62
REMARK   27  A    between atoms: _61  and  _64
REMARK   28  A    between atoms: _64  and  _65
REMARK   29  A    between atoms: _68  and  _70
REMARK   30  A    between atoms: _70  and  _71
REMARK   31  A    between atoms: _73  and  _75
REMARK   32  A    between atoms: _75  and  _76
REMARK   33  A    between atoms: _78  and  _80
REMARK   34  A    between atoms: _80  and  _81
REMARK   35  A    between atoms: _80  and  _83
REMARK   36  A    between atoms: _83  and  _84
REMARK   37  A    between atoms: _89  and  _91
REMARK   38  A    between atoms: _91  and  _92
REMARK   39  A    between atoms: _91  and  _94
REMARK   40  A    between atoms: _94  and  _95
REMARK   41  A    between atoms: _98  and  _100
REMARK   42  A    between atoms: _100  and  _101
REMARK   43  A    between atoms: _104  and  _106
REMARK   44  A    between atoms: _106  and  _107
REMARK   45  A    between atoms: _106  and  _109
REMARK   46  A    between atoms: _109  and  _110
REMARK   47  A    between atoms: _114  and  ZN_430
REMARK   48  A    between atoms: _115  and  _117
REMARK   49  A    between atoms: _117  and  _118
REMARK   50  A    between atoms: _121  and  _123
REMARK   51  A    between atoms: _123  and  _124
REMARK   52  A    between atoms: _123  and  _126
REMARK   53  A    between atoms: _126  and  _127
REMARK   54  A    between atoms: _133  and  _135
REMARK   55  A    between atoms: _135  and  _136
REMARK   56  A    between atoms: _135  and  _138
REMARK   57  A    between atoms: _138  and  _139
REMARK   58  A    between atoms: _142  and  _144
REMARK   59  A    between atoms: _144  and  _145
REMARK   60  A    between atoms: _144  and  _147
REMARK   61  A    between atoms: _147  and  _148
REMARK   62  A    between atoms: _151  and  _153
REMARK   63  A    between atoms: _153  and  _154
REMARK   64  A    between atoms: _153  and  _156
REMARK   65  A    between atoms: _156  and  _157
REMARK   66  A    between atoms: _160  and  _162
REMARK   67  A    between atoms: _162  and  _163
REMARK   68  A    between atoms: _162  and  _165
REMARK   69  A    between atoms: _165  and  _166
REMARK   70  A    between atoms: _167  and  ZN_430
REMARK   71  A    between atoms: _171  and  _173
REMARK   72  A    between atoms: _173  and  _174
REMARK   73  A    between atoms: _173  and  _176
REMARK   74  A    between atoms: _176  and  _177
REMARK   75  A    between atoms: _183  and  _185
REMARK   76  A    between atoms: _185  and  _186
REMARK   77  A    between atoms: _185  and  _188
REMARK   78  A    between atoms: _188  and  _189
REMARK   79  A    between atoms: _189  and  _191
REMARK   80  A    between atoms: _191  and  CA_431
REMARK   81  A    between atoms: _192  and  _194
REMARK   82  A    between atoms: _194  and  _195
REMARK   83  A    between atoms: _194  and  _197
REMARK   84  A    between atoms: _197  and  _198
REMARK   85  A    between atoms: _198  and  _199
REMARK   86  A    between atoms: _199  and  _201
REMARK   87  A    between atoms: _201  and  CA_431
REMARK   88  A    between atoms: _202  and  _204
REMARK   89  A    between atoms: _204  and  _205
REMARK   90  A    between atoms: _204  and  _207
REMARK   91  A    between atoms: _207  and  _208
REMARK   92  A    between atoms: _218  and  _220
REMARK   93  A    between atoms: _220  and  _221
REMARK   94  A    between atoms: _220  and  _223
REMARK   95  A    between atoms: _223  and  _224
REMARK   96  A    between atoms: _224  and  _225
REMARK   97  A    between atoms: _230  and  _231
REMARK   98  A    between atoms: _230  and  _233
REMARK   99  A    between atoms: _233  and  _234
REMARK  100  A    between atoms: _239  and  _240
REMARK  101  A    between atoms: _242  and  _244
REMARK  102  A    between atoms: _244  and  _245
REMARK  103  A    between atoms: _244  and  _247
REMARK  104  A    between atoms: _247  and  _248
REMARK  105  A    between atoms: _253  and  _255
REMARK  106  A    between atoms: _255  and  _256
REMARK  107  A    between atoms: _255  and  _258
REMARK  108  A    between atoms: _258  and  _259
REMARK  109  A    between atoms: _262  and  _264
REMARK  110  A    between atoms: _264  and  _265
REMARK  111  A    between atoms: _264  and  _267
REMARK  112  A    between atoms: _267  and  _268
REMARK  113  A    between atoms: _268  and  _269
REMARK  114  A    between atoms: _269  and  _270
REMARK  115  A    between atoms: _279  and  _281
REMARK  116  A    between atoms: _281  and  _282
REMARK  117  A    between atoms: _281  and  _284
REMARK  118  A    between atoms: _287  and  _289
REMARK  119  A    between atoms: _289  and  _290
REMARK  120  A    between atoms: _293  and  _295
REMARK  121  A    between atoms: _295  and  _296
REMARK  122  A    between atoms: _299  and  _301
REMARK  123  A    between atoms: _301  and  _302
REMARK  124  A    between atoms: _301  and  _304
REMARK  125  A    between atoms: _304  and  _305
REMARK  126  A    between atoms: _309  and  ZN_429
REMARK  127  A    between atoms: _310  and  _312
REMARK  128  A    between atoms: _312  and  _313
REMARK  129  A    between atoms: _312  and  _315
REMARK  130  A    between atoms: _315  and  _316
REMARK  131  A    between atoms: _316  and  _317
REMARK  132  A    between atoms: _320  and  _322
REMARK  133  A    between atoms: _322  and  _323
REMARK  134  A    between atoms: _322  and  _325
REMARK  135  A    between atoms: _325  and  _326
REMARK  136  A    between atoms: _330  and  ZN_429
REMARK  137  A    between atoms: _331  and  _333
REMARK  138  A    between atoms: _333  and  _334
REMARK  139  A    between atoms: _333  and  _336
REMARK  140  A    between atoms: _336  and  _337
REMARK  141  A    between atoms: _340  and  _342
REMARK  142  A    between atoms: _342  and  _343
REMARK  143  A    between atoms: _342  and  _345
REMARK  144  A    between atoms: _345  and  _346
REMARK  145  A    between atoms: _348  and  _350
REMARK  146  A    between atoms: _350  and  _351
REMARK  147  A    between atoms: _350  and  _353
REMARK  148  A    between atoms: _353  and  _354
REMARK  149  A    between atoms: _358  and  ZN_429
REMARK  150  A    between atoms: _359  and  _361
REMARK  151  A    between atoms: _361  and  _362
REMARK  152  A    between atoms: _361  and  _364
REMARK  153  A    between atoms: _364  and  _365
REMARK  154  A    between atoms: _368  and  _370
REMARK  155  A    between atoms: _370  and  _371
REMARK  156  A    between atoms: _370  and  _373
REMARK  157  A    between atoms: _373  and  _374
REMARK  158  A    between atoms: _374  and  _375
REMARK  159  A    between atoms: _377  and  _379
REMARK  160  A    between atoms: _379  and  _380
REMARK  161  A    between atoms: _379  and  _382
REMARK  162  A    between atoms: _382  and  _383
REMARK  163  A    between atoms: _388  and  _389
REMARK  164  A    between atoms: _392  and  _393
REMARK  165  A    between atoms: _398  and  _400
REMARK  166  A    between atoms: _400  and  _401
REMARK  167  A    between atoms: _400  and  _403
REMARK  168  A    between atoms: _403  and  _404
REMARK  169  A    between atoms: _406  and  _408
REMARK  170  A    between atoms: _408  and  _409
REMARK  171  A    between atoms: _408  and  _411
REMARK  172  A    between atoms: _411  and  _412
REMARK  173  A    between atoms: _417  and  _418
REMARK  174  A    between atoms: _420  and  _422
REMARK  175  A    between atoms: _422  and  _423
REMARK  176  A    between atoms: _422  and  _425
REMARK  177  A    between atoms: _425  and  _426
REMARK                            x       y       z     vdW  Elec       q    Type
REMARK                         _______ _______ _______ _____ _____    ______ ____
ROOT
ATOM      1  O   HOH     1      31.254  46.534  -3.084  0.00  0.00    +0.000 OA
ENDROOT
TORSDOF 0
REMARK  Name = ../refined-set-2016/1cgl/1cgl_pocket.pdb
REMARK  177 active torsions:
REMARK  status: ('A' for Active; 'I' for Inactive)
REMARK    1  A    between atoms: _1  and  _3
REMARK    2  A    between atoms: _3  and  _4
REMARK    3  A    between atoms: _3  and  _6
REMARK    4  A    between atoms: _6  and  _7
REMARK    5  A    between atoms: _11  and  ZN_430
REMARK    6  A    between atoms: _12  and  _14
REMARK    7  A    between atoms: _14  and  _15
REMARK    8  A    between atoms: _14  and  _17
REMARK    9  A    between atoms: _17  and  _18
REMARK   10  A    between atoms: _18  and  _20
REMARK   11  A    between atoms: _20  and  ZN_430
REMARK   12  A    between atoms: _21  and  _23
REMARK   13  A    between atoms: _23  and  _24
REMARK   14  A    between atoms: _23  and  _26
REMARK   15  A    between atoms: _26  and  _27
REMARK   16  A    between atoms: _32  and  _34
REMARK   17  A    between atoms: _34  and  _35
REMARK   18  A    between atoms: _34  and  _37
REMARK   19  A    between atoms: _37  and  _38
REMARK   20  A    between atoms: _41  and  _42
REMARK   21  A    between atoms: _47  and  _49
REMARK   22  A    between atoms: _49  and  _50
REMARK   23  A    between atoms: _49  and  _52
REMARK   24  A    between atoms: _52  and  _53
REMARK   25  A    between atoms: _59  and  _61
REMARK   26  A    between atoms: _61  and  _62
REMARK   27  A    between atoms: _61  and  _64
REMARK   28  A    between atoms: _64  and  _65
REMARK   29  A    between atoms: _68  and  _70
REMARK   30  A    between atoms: _70  and  _71
REMARK   31  A    between atoms: _73  and  _75
REMARK   32  A    between atoms: _75  and  _76
REMARK   33  A    between atoms: _78  and  _80
REMARK   34  A    between atoms: _80  and  _81
REMARK   35  A    between atoms: _80  and  _83
REMARK   36  A    between atoms: _83  and  _84
REMARK   37  A    between atoms: _89  and  _91
REMARK   38  A    between atoms: _91  and  _92
REMARK   39  A    between atoms: _91  and  _94
REMARK   40  A    between atoms: _94  and  _95
REMARK   41  A    between atoms: _98  and  _100
REMARK   42  A    between atoms: _100  and  _101
REMARK   43  A    between atoms: _104  and  _106
REMARK   44  A    between atoms: _106  and  _107
REMARK   45  A    between atoms: _106  and  _109
REMARK   46  A    between atoms: _109  and  _110
REMARK   47  A    between atoms: _114  and  ZN_430
REMARK   48  A    between atoms: _115  and  _117
REMARK   49  A    between atoms: _117  and  _118
REMARK   50  A    between atoms: _121  and  _123
REMARK   51  A    between atoms: _123  and  _124
REMARK   52  A    between atoms: _123  and  _126
REMARK   53  A    between atoms: _126  and  _127
REMARK   54  A    between atoms: _133  and  _135
REMARK   55  A    between atoms: _135  and  _136
REMARK   56  A    between atoms: _135  and  _138
REMARK   57  A    between atoms: _138  and  _139
REMARK   58  A    between atoms: _142  and  _144
REMARK   59  A    between atoms: _144  and  _145
REMARK   60  A    between atoms: _144  and  _147
REMARK   61  A    between atoms: _147  and  _148
REMARK   62  A    between atoms: _151  and  _153
REMARK   63  A    between atoms: _153  and  _154
REMARK   64  A    between atoms: _153  and  _156
REMARK   65  A    between atoms: _156  and  _157
REMARK   66  A    between atoms: _160  and  _162
REMARK   67  A    between atoms: _162  and  _163
REMARK   68  A    between atoms: _162  and  _165
REMARK   69  A    between atoms: _165  and  _166
REMARK   70  A    between atoms: _167  and  ZN_430
REMARK   71  A    between atoms: _171  and  _173
REMARK   72  A    between atoms: _173  and  _174
REMARK   73  A    between atoms: _173  and  _176
REMARK   74  A    between atoms: _176  and  _177
REMARK   75  A    between atoms: _183  and  _185
REMARK   76  A    between atoms: _185  and  _186
REMARK   77  A    between atoms: _185  and  _188
REMARK   78  A    between atoms: _188  and  _189
REMARK   79  A    between atoms: _189  and  _191
REMARK   80  A    between atoms: _191  and  CA_431
REMARK   81  A    between atoms: _192  and  _194
REMARK   82  A    between atoms: _194  and  _195
REMARK   83  A    between atoms: _194  and  _197
REMARK   84  A    between atoms: _197  and  _198
REMARK   85  A    between atoms: _198  and  _199
REMARK   86  A    between atoms: _199  and  _201
REMARK   87  A    between atoms: _201  and  CA_431
REMARK   88  A    between atoms: _202  and  _204
REMARK   89  A    between atoms: _204  and  _205
REMARK   90  A    between atoms: _204  and  _207
REMARK   91  A    between atoms: _207  and  _208
REMARK   92  A    between atoms: _218  and  _220
REMARK   93  A    between atoms: _220  and  _221
REMARK   94  A    between atoms: _220  and  _223
REMARK   95  A    between atoms: _223  and  _224
REMARK   96  A    between atoms: _224  and  _225
REMARK   97  A    between atoms: _230  and  _231
REMARK   98  A    between atoms: _230  and  _233
REMARK   99  A    between atoms: _233  and  _234
REMARK  100  A    between atoms: _239  and  _240
REMARK  101  A    between atoms: _242  and  _244
REMARK  102  A    between atoms: _244  and  _245
REMARK  103  A    between atoms: _244  and  _247
REMARK  104  A    between atoms: _247  and  _248
REMARK  105  A    between atoms: _253  and  _255
REMARK  106  A    between atoms: _255  and  _256
REMARK  107  A    between atoms: _255  and  _258
REMARK  108  A    between atoms: _258  and  _259
REMARK  109  A    between atoms: _262  and  _264
REMARK  110  A    between atoms: _264  and  _265
REMARK  111  A    between atoms: _264  and  _267
REMARK  112  A    between atoms: _267  and  _268
REMARK  113  A    between atoms: _268  and  _269
REMARK  114  A    between atoms: _269  and  _270
REMARK  115  A    between atoms: _279  and  _281
REMARK  116  A    between atoms: _281  and  _282
REMARK  117  A    between atoms: _281  and  _284
REMARK  118  A    between atoms: _287  and  _289
REMARK  119  A    between atoms: _289  and  _290
REMARK  120  A    between atoms: _293  and  _295
REMARK  121  A    between atoms: _295  and  _296
REMARK  122  A    between atoms: _299  and  _301
REMARK  123  A    between atoms: _301  and  _302
REMARK  124  A    between atoms: _301  and  _304
REMARK  125  A    between atoms: _304  and  _305
REMARK  126  A    between atoms: _309  and  ZN_429
REMARK  127  A    between atoms: _310  and  _312
REMARK  128  A    between atoms: _312  and  _313
REMARK  129  A    between atoms: _312  and  _315
REMARK  130  A    between atoms: _315  and  _316
REMARK  131  A    between atoms: _316  and  _317
REMARK  132  A    between atoms: _320  and  _322
REMARK  133  A    between atoms: _322  and  _323
REMARK  134  A    between atoms: _322  and  _325
REMARK  135  A    between atoms: _325  and  _326
REMARK  136  A    between atoms: _330  and  ZN_429
REMARK  137  A    between atoms: _331  and  _333
REMARK  138  A    between atoms: _333  and  _334
REMARK  139  A    between atoms: _333  and  _336
REMARK  140  A    between atoms: _336  and  _337
REMARK  141  A    between atoms: _340  and  _342
REMARK  142  A    between atoms: _342  and  _343
REMARK  143  A    between atoms: _342  and  _345
REMARK  144  A    between atoms: _345  and  _346
REMARK  145  A    between atoms: _348  and  _350
REMARK  146  A    between atoms: _350  and  _351
REMARK  147  A    between atoms: _350  and  _353
REMARK  148  A    between atoms: _353  and  _354
REMARK  149  A    between atoms: _358  and  ZN_429
REMARK  150  A    between atoms: _359  and  _361
REMARK  151  A    between atoms: _361  and  _362
REMARK  152  A    between atoms: _361  and  _364
REMARK  153  A    between atoms: _364  and  _365
REMARK  154  A    between atoms: _368  and  _370
REMARK  155  A    between atoms: _370  and  _371
REMARK  156  A    between atoms: _370  and  _373
REMARK  157  A    between atoms: _373  and  _374
REMARK  158  A    between atoms: _374  and  _375
REMARK  159  A    between atoms: _377  and  _379
REMARK  160  A    between atoms: _379  and  _380
REMARK  161  A    between atoms: _379  and  _382
REMARK  162  A    between atoms: _382  and  _383
REMARK  163  A    between atoms: _388  and  _389
REMARK  164  A    between atoms: _392  and  _393
REMARK  165  A    between atoms: _398  and  _400
REMARK  166  A    between atoms: _400  and  _401
REMARK  167  A    between atoms: _400  and  _403
REMARK  168  A    between atoms: _403  and  _404
REMARK  169  A    between atoms: _406  and  _408
REMARK  170  A    between atoms: _408  and  _409
REMARK  171  A    between atoms: _408  and  _411
REMARK  172  A    between atoms: _411  and  _412
REMARK  173  A    between atoms: _417  and  _418
REMARK  174  A    between atoms: _420  and  _422
REMARK  175  A    between atoms: _422  and  _423
REMARK  176  A    between atoms: _422  and  _425
REMARK  177  A    between atoms: _425  and  _426
REMARK                            x       y       z     vdW  Elec       q    Type
REMARK                         _______ _______ _______ _____ _____    ______ ____
ROOT
ATOM      1  O   HOH     1      35.009  46.112  -8.995  0.00  0.00    +0.000 OA
ENDROOT
TORSDOF 0
REMARK  Name = ../refined-set-2016/1cgl/1cgl_pocket.pdb
REMARK  177 active torsions:
REMARK  status: ('A' for Active; 'I' for Inactive)
REMARK    1  A    between atoms: _1  and  _3
REMARK    2  A    between atoms: _3  and  _4
REMARK    3  A    between atoms: _3  and  _6
REMARK    4  A    between atoms: _6  and  _7
REMARK    5  A    between atoms: _11  and  ZN_430
REMARK    6  A    between atoms: _12  and  _14
REMARK    7  A    between atoms: _14  and  _15
REMARK    8  A    between atoms: _14  and  _17
REMARK    9  A    between atoms: _17  and  _18
REMARK   10  A    between atoms: _18  and  _20
REMARK   11  A    between atoms: _20  and  ZN_430
REMARK   12  A    between atoms: _21  and  _23
REMARK   13  A    between atoms: _23  and  _24
REMARK   14  A    between atoms: _23  and  _26
REMARK   15  A    between atoms: _26  and  _27
REMARK   16  A    between atoms: _32  and  _34
REMARK   17  A    between atoms: _34  and  _35
REMARK   18  A    between atoms: _34  and  _37
REMARK   19  A    between atoms: _37  and  _38
REMARK   20  A    between atoms: _41  and  _42
REMARK   21  A    between atoms: _47  and  _49
REMARK   22  A    between atoms: _49  and  _50
REMARK   23  A    between atoms: _49  and  _52
REMARK   24  A    between atoms: _52  and  _53
REMARK   25  A    between atoms: _59  and  _61
REMARK   26  A    between atoms: _61  and  _62
REMARK   27  A    between atoms: _61  and  _64
REMARK   28  A    between atoms: _64  and  _65
REMARK   29  A    between atoms: _68  and  _70
REMARK   30  A    between atoms: _70  and  _71
REMARK   31  A    between atoms: _73  and  _75
REMARK   32  A    between atoms: _75  and  _76
REMARK   33  A    between atoms: _78  and  _80
REMARK   34  A    between atoms: _80  and  _81
REMARK   35  A    between atoms: _80  and  _83
REMARK   36  A    between atoms: _83  and  _84
REMARK   37  A    between atoms: _89  and  _91
REMARK   38  A    between atoms: _91  and  _92
REMARK   39  A    between atoms: _91  and  _94
REMARK   40  A    between atoms: _94  and  _95
REMARK   41  A    between atoms: _98  and  _100
REMARK   42  A    between atoms: _100  and  _101
REMARK   43  A    between atoms: _104  and  _106
REMARK   44  A    between atoms: _106  and  _107
REMARK   45  A    between atoms: _106  and  _109
REMARK   46  A    between atoms: _109  and  _110
REMARK   47  A    between atoms: _114  and  ZN_430
REMARK   48  A    between atoms: _115  and  _117
REMARK   49  A    between atoms: _117  and  _118
REMARK   50  A    between atoms: _121  and  _123
REMARK   51  A    between atoms: _123  and  _124
REMARK   52  A    between atoms: _123  and  _126
REMARK   53  A    between atoms: _126  and  _127
REMARK   54  A    between atoms: _133  and  _135
REMARK   55  A    between atoms: _135  and  _136
REMARK   56  A    between atoms: _135  and  _138
REMARK   57  A    between atoms: _138  and  _139
REMARK   58  A    between atoms: _142  and  _144
REMARK   59  A    between atoms: _144  and  _145
REMARK   60  A    between atoms: _144  and  _147
REMARK   61  A    between atoms: _147  and  _148
REMARK   62  A    between atoms: _151  and  _153
REMARK   63  A    between atoms: _153  and  _154
REMARK   64  A    between atoms: _153  and  _156
REMARK   65  A    between atoms: _156  and  _157
REMARK   66  A    between atoms: _160  and  _162
REMARK   67  A    between atoms: _162  and  _163
REMARK   68  A    between atoms: _162  and  _165
REMARK   69  A    between atoms: _165  and  _166
REMARK   70  A    between atoms: _167  and  ZN_430
REMARK   71  A    between atoms: _171  and  _173
REMARK   72  A    between atoms: _173  and  _174
REMARK   73  A    between atoms: _173  and  _176
REMARK   74  A    between atoms: _176  and  _177
REMARK   75  A    between atoms: _183  and  _185
REMARK   76  A    between atoms: _185  and  _186
REMARK   77  A    between atoms: _185  and  _188
REMARK   78  A    between atoms: _188  and  _189
REMARK   79  A    between atoms: _189  and  _191
REMARK   80  A    between atoms: _191  and  CA_431
REMARK   81  A    between atoms: _192  and  _194
REMARK   82  A    between atoms: _194  and  _195
REMARK   83  A    between atoms: _194  and  _197
REMARK   84  A    between atoms: _197  and  _198
REMARK   85  A    between atoms: _198  and  _199
REMARK   86  A    between atoms: _199  and  _201
REMARK   87  A    between atoms: _201  and  CA_431
REMARK   88  A    between atoms: _202  and  _204
REMARK   89  A    between atoms: _204  and  _205
REMARK   90  A    between atoms: _204  and  _207
REMARK   91  A    between atoms: _207  and  _208
REMARK   92  A    between atoms: _218  and  _220
REMARK   93  A    between atoms: _220  and  _221
REMARK   94  A    between atoms: _220  and  _223
REMARK   95  A    between atoms: _223  and  _224
REMARK   96  A    between atoms: _224  and  _225
REMARK   97  A    between atoms: _230  and  _231
REMARK   98  A    between atoms: _230  and  _233
REMARK   99  A    between atoms: _233  and  _234
REMARK  100  A    between atoms: _239  and  _240
REMARK  101  A    between atoms: _242  and  _244
REMARK  102  A    between atoms: _244  and  _245
REMARK  103  A    between atoms: _244  and  _247
REMARK  104  A    between atoms: _247  and  _248
REMARK  105  A    between atoms: _253  and  _255
REMARK  106  A    between atoms: _255  and  _256
REMARK  107  A    between atoms: _255  and  _258
REMARK  108  A    between atoms: _258  and  _259
REMARK  109  A    between atoms: _262  and  _264
REMARK  110  A    between atoms: _264  and  _265
REMARK  111  A    between atoms: _264  and  _267
REMARK  112  A    between atoms: _267  and  _268
REMARK  113  A    between atoms: _268  and  _269
REMARK  114  A    between atoms: _269  and  _270
REMARK  115  A    between atoms: _279  and  _281
REMARK  116  A    between atoms: _281  and  _282
REMARK  117  A    between atoms: _281  and  _284
REMARK  118  A    between atoms: _287  and  _289
REMARK  119  A    between atoms: _289  and  _290
REMARK  120  A    between atoms: _293  and  _295
REMARK  121  A    between atoms: _295  and  _296
REMARK  122  A    between atoms: _299  and  _301
REMARK  123  A    between atoms: _301  and  _302
REMARK  124  A    between atoms: _301  and  _304
REMARK  125  A    between atoms: _304  and  _305
REMARK  126  A    between atoms: _309  and  ZN_429
REMARK  127  A    between atoms: _310  and  _312
REMARK  128  A    between atoms: _312  and  _313
REMARK  129  A    between atoms: _312  and  _315
REMARK  130  A    between atoms: _315  and  _316
REMARK  131  A    between atoms: _316  and  _317
REMARK  132  A    between atoms: _320  and  _322
REMARK  133  A    between atoms: _322  and  _323
REMARK  134  A    between atoms: _322  and  _325
REMARK  135  A    between atoms: _325  and  _326
REMARK  136  A    between atoms: _330  and  ZN_429
REMARK  137  A    between atoms: _331  and  _333
REMARK  138  A    between atoms: _333  and  _334
REMARK  139  A    between atoms: _333  and  _336
REMARK  140  A    between atoms: _336  and  _337
REMARK  141  A    between atoms: _340  and  _342
REMARK  142  A    between atoms: _342  and  _343
REMARK  143  A    between atoms: _342  and  _345
REMARK  144  A    between atoms: _345  and  _346
REMARK  145  A    between atoms: _348  and  _350
REMARK  146  A    between atoms: _350  and  _351
REMARK  147  A    between atoms: _350  and  _353
REMARK  148  A    between atoms: _353  and  _354
REMARK  149  A    between atoms: _358  and  ZN_429
REMARK  150  A    between atoms: _359  and  _361
REMARK  151  A    between atoms: _361  and  _362
REMARK  152  A    between atoms: _361  and  _364
REMARK  153  A    between atoms: _364  and  _365
REMARK  154  A    between atoms: _368  and  _370
REMARK  155  A    between atoms: _370  and  _371
REMARK  156  A    between atoms: _370  and  _373
REMARK  157  A    between atoms: _373  and  _374
REMARK  158  A    between atoms: _374  and  _375
REMARK  159  A    between atoms: _377  and  _379
REMARK  160  A    between atoms: _379  and  _380
REMARK  161  A    between atoms: _379  and  _382
REMARK  162  A    between atoms: _382  and  _383
REMARK  163  A    between atoms: _388  and  _389
REMARK  164  A    between atoms: _392  and  _393
REMARK  165  A    between atoms: _398  and  _400
REMARK  166  A    between atoms: _400  and  _401
REMARK  167  A    between atoms: _400  and  _403
REMARK  168  A    between atoms: _403  and  _404
REMARK  169  A    between atoms: _406  and  _408
REMARK  170  A    between atoms: _408  and  _409
REMARK  171  A    between atoms: _408  and  _411
REMARK  172  A    between atoms: _411  and  _412
REMARK  173  A    between atoms: _417  and  _418
REMARK  174  A    between atoms: _420  and  _422
REMARK  175  A    between atoms: _422  and  _423
REMARK  176  A    between atoms: _422  and  _425
REMARK  177  A    between atoms: _425  and  _426
REMARK                            x       y       z     vdW  Elec       q    Type
REMARK                         _______ _______ _______ _____ _____    ______ ____
ROOT
ATOM      1  O   HOH     1      19.321  42.009   3.795  0.00  0.00    +0.000 OA
ENDROOT
TORSDOF 0
