REMARK  Name = ../refined-set-2016/1ivp/1ivp_pocket.pdb
REMARK  217 active torsions:
REMARK  status: ('A' for Active; 'I' for Inactive)
REMARK    1  A    between atoms: _1  and  _3
REMARK    2  A    between atoms: _3  and  _4
REMARK    3  A    between atoms: _3  and  _6
REMARK    4  A    between atoms: _6  and  _7
REMARK    5  A    between atoms: _7  and  _8
REMARK    6  A    between atoms: _8  and  _9
REMARK    7  A    between atoms: _18  and  _20
REMARK    8  A    between atoms: _20  and  _21
REMARK    9  A    between atoms: _20  and  _23
REMARK   10  A    between atoms: _23  and  _24
REMARK   11  A    between atoms: _27  and  _29
REMARK   12  A    between atoms: _29  and  _30
REMARK   13  A    between atoms: _29  and  _32
REMARK   14  A    between atoms: _32  and  _33
REMARK   15  A    between atoms: _36  and  _38
REMARK   16  A    between atoms: _38  and  _39
REMARK   17  A    between atoms: _38  and  _41
REMARK   18  A    between atoms: _41  and  _42
REMARK   19  A    between atoms: _45  and  _47
REMARK   20  A    between atoms: _47  and  _48
REMARK   21  A    between atoms: _47  and  _50
REMARK   22  A    between atoms: _50  and  _51
REMARK   23  A    between atoms: _54  and  _56
REMARK   24  A    between atoms: _56  and  _57
REMARK   25  A    between atoms: _59  and  _61
REMARK   26  A    between atoms: _61  and  _62
REMARK   27  A    between atoms: _65  and  _67
REMARK   28  A    between atoms: _67  and  _68
REMARK   29  A    between atoms: _67  and  _70
REMARK   30  A    between atoms: _70  and  _71
REMARK   31  A    between atoms: _74  and  _76
REMARK   32  A    between atoms: _76  and  _77
REMARK   33  A    between atoms: _76  and  _79
REMARK   34  A    between atoms: _79  and  _80
REMARK   35  A    between atoms: _83  and  _85
REMARK   36  A    between atoms: _85  and  _86
REMARK   37  A    between atoms: _85  and  _88
REMARK   38  A    between atoms: _88  and  _89
REMARK   39  A    between atoms: _91  and  _93
REMARK   40  A    between atoms: _93  and  _94
REMARK   41  A    between atoms: _93  and  _96
REMARK   42  A    between atoms: _96  and  _97
REMARK   43  A    between atoms: _100  and  _102
REMARK   44  A    between atoms: _102  and  _103
REMARK   45  A    between atoms: _102  and  _105
REMARK   46  A    between atoms: _105  and  _106
REMARK   47  A    between atoms: _109  and  _111
REMARK   48  A    between atoms: _111  and  _112
REMARK   49  A    between atoms: _111  and  _114
REMARK   50  A    between atoms: _117  and  _119
REMARK   51  A    between atoms: _119  and  _120
REMARK   52  A    between atoms: _122  and  _124
REMARK   53  A    between atoms: _124  and  _125
REMARK   54  A    between atoms: _129  and  _130
REMARK   55  A    between atoms: _129  and  _132
REMARK   56  A    between atoms: _132  and  _133
REMARK   57  A    between atoms: _136  and  _138
REMARK   58  A    between atoms: _138  and  _139
REMARK   59  A    between atoms: _141  and  _143
REMARK   60  A    between atoms: _143  and  _144
REMARK   61  A    between atoms: _146  and  _148
REMARK   62  A    between atoms: _148  and  _149
REMARK   63  A    between atoms: _148  and  _151
REMARK   64  A    between atoms: _151  and  _152
REMARK   65  A    between atoms: _158  and  _160
REMARK   66  A    between atoms: _160  and  _161
REMARK   67  A    between atoms: _160  and  _163
REMARK   68  A    between atoms: _163  and  _164
REMARK   69  A    between atoms: _167  and  _169
REMARK   70  A    between atoms: _169  and  _170
REMARK   71  A    between atoms: _169  and  _172
REMARK   72  A    between atoms: _172  and  _173
REMARK   73  A    between atoms: _173  and  _174
REMARK   74  A    between atoms: _176  and  _178
REMARK   75  A    between atoms: _178  and  _179
REMARK   76  A    between atoms: _178  and  _181
REMARK   77  A    between atoms: _181  and  _182
REMARK   78  A    between atoms: _185  and  _187
REMARK   79  A    between atoms: _187  and  _188
REMARK   80  A    between atoms: _187  and  _190
REMARK   81  A    between atoms: _190  and  _191
REMARK   82  A    between atoms: _195  and  _196
REMARK   83  A    between atoms: _201  and  _203
REMARK   84  A    between atoms: _203  and  _204
REMARK   85  A    between atoms: _203  and  _206
REMARK   86  A    between atoms: _206  and  _207
REMARK   87  A    between atoms: _210  and  _212
REMARK   88  A    between atoms: _212  and  _213
REMARK   89  A    between atoms: _212  and  _215
REMARK   90  A    between atoms: _215  and  _216
REMARK   91  A    between atoms: _221  and  _223
REMARK   92  A    between atoms: _223  and  _224
REMARK   93  A    between atoms: _223  and  _226
REMARK   94  A    between atoms: _226  and  _227
REMARK   95  A    between atoms: _230  and  _232
REMARK   96  A    between atoms: _232  and  _233
REMARK   97  A    between atoms: _232  and  _235
REMARK   98  A    between atoms: _235  and  _236
REMARK   99  A    between atoms: _242  and  _244
REMARK  100  A    between atoms: _244  and  _245
REMARK  101  A    between atoms: _247  and  _249
REMARK  102  A    between atoms: _249  and  _250
REMARK  103  A    between atoms: _249  and  _252
REMARK  104  A    between atoms: _252  and  _253
REMARK  105  A    between atoms: _253  and  _254
REMARK  106  A    between atoms: _254  and  _255
REMARK  107  A    between atoms: _264  and  _266
REMARK  108  A    between atoms: _266  and  _267
REMARK  109  A    between atoms: _266  and  _269
REMARK  110  A    between atoms: _269  and  _270
REMARK  111  A    between atoms: _270  and  _271
REMARK  112  A    between atoms: _271  and  _272
REMARK  113  A    between atoms: _281  and  _283
REMARK  114  A    between atoms: _283  and  _284
REMARK  115  A    between atoms: _283  and  _286
REMARK  116  A    between atoms: _286  and  _287
REMARK  117  A    between atoms: _290  and  _292
REMARK  118  A    between atoms: _292  and  _293
REMARK  119  A    between atoms: _292  and  _295
REMARK  120  A    between atoms: _295  and  _296
REMARK  121  A    between atoms: _299  and  _301
REMARK  122  A    between atoms: _301  and  _302
REMARK  123  A    between atoms: _301  and  _304
REMARK  124  A    between atoms: _304  and  _305
REMARK  125  A    between atoms: _308  and  _310
REMARK  126  A    between atoms: _310  and  _311
REMARK  127  A    between atoms: _310  and  _313
REMARK  128  A    between atoms: _313  and  _314
REMARK  129  A    between atoms: _317  and  _319
REMARK  130  A    between atoms: _319  and  _320
REMARK  131  A    between atoms: _322  and  _324
REMARK  132  A    between atoms: _324  and  _325
REMARK  133  A    between atoms: _328  and  _330
REMARK  134  A    between atoms: _330  and  _331
REMARK  135  A    between atoms: _330  and  _333
REMARK  136  A    between atoms: _333  and  _334
REMARK  137  A    between atoms: _337  and  _339
REMARK  138  A    between atoms: _339  and  _340
REMARK  139  A    between atoms: _339  and  _342
REMARK  140  A    between atoms: _342  and  _343
REMARK  141  A    between atoms: _346  and  _348
REMARK  142  A    between atoms: _348  and  _349
REMARK  143  A    between atoms: _348  and  _351
REMARK  144  A    between atoms: _351  and  _352
REMARK  145  A    between atoms: _354  and  _356
REMARK  146  A    between atoms: _356  and  _357
REMARK  147  A    between atoms: _356  and  _359
REMARK  148  A    between atoms: _359  and  _360
REMARK  149  A    between atoms: _363  and  _365
REMARK  150  A    between atoms: _365  and  _366
REMARK  151  A    between atoms: _365  and  _368
REMARK  152  A    between atoms: _368  and  _369
REMARK  153  A    between atoms: _372  and  _374
REMARK  154  A    between atoms: _374  and  _375
REMARK  155  A    between atoms: _374  and  _377
REMARK  156  A    between atoms: _380  and  _382
REMARK  157  A    between atoms: _382  and  _383
REMARK  158  A    between atoms: _385  and  _387
REMARK  159  A    between atoms: _387  and  _388
REMARK  160  A    between atoms: _390  and  _392
REMARK  161  A    between atoms: _392  and  _393
REMARK  162  A    between atoms: _392  and  _395
REMARK  163  A    between atoms: _395  and  _396
REMARK  164  A    between atoms: _399  and  _401
REMARK  165  A    between atoms: _401  and  _402
REMARK  166  A    between atoms: _404  and  _406
REMARK  167  A    between atoms: _406  and  _407
REMARK  168  A    between atoms: _409  and  _411
REMARK  169  A    between atoms: _411  and  _412
REMARK  170  A    between atoms: _411  and  _414
REMARK  171  A    between atoms: _414  and  _415
REMARK  172  A    between atoms: _421  and  _423
REMARK  173  A    between atoms: _423  and  _424
REMARK  174  A    between atoms: _423  and  _426
REMARK  175  A    between atoms: _426  and  _427
REMARK  176  A    between atoms: _430  and  _432
REMARK  177  A    between atoms: _432  and  _433
REMARK  178  A    between atoms: _432  and  _435
REMARK  179  A    between atoms: _435  and  _436
REMARK  180  A    between atoms: _439  and  _441
REMARK  181  A    between atoms: _441  and  _442
REMARK  182  A    between atoms: _441  and  _444
REMARK  183  A    between atoms: _444  and  _445
REMARK  184  A    between atoms: _445  and  _446
REMARK  185  A    between atoms: _448  and  _450
REMARK  186  A    between atoms: _450  and  _451
REMARK  187  A    between atoms: _450  and  _453
REMARK  188  A    between atoms: _453  and  _454
REMARK  189  A    between atoms: _458  and  _459
REMARK  190  A    between atoms: _464  and  _466
REMARK  191  A    between atoms: _466  and  _467
REMARK  192  A    between atoms: _466  and  _469
REMARK  193  A    between atoms: _469  and  _470
REMARK  194  A    between atoms: _473  and  _475
REMARK  195  A    between atoms: _475  and  _476
REMARK  196  A    between atoms: _475  and  _478
REMARK  197  A    between atoms: _478  and  _479
REMARK  198  A    between atoms: _484  and  _486
REMARK  199  A    between atoms: _486  and  _487
REMARK  200  A    between atoms: _486  and  _489
REMARK  201  A    between atoms: _489  and  _490
REMARK  202  A    between atoms: _493  and  _495
REMARK  203  A    between atoms: _495  and  _496
REMARK  204  A    between atoms: _495  and  _498
REMARK  205  A    between atoms: _498  and  _499
REMARK  206  A    between atoms: _505  and  _507
REMARK  207  A    between atoms: _507  and  _508
REMARK  208  A    between atoms: _510  and  _512
REMARK  209  A    between atoms: _512  and  _513
REMARK  210  A    between atoms: _512  and  _515
REMARK  211  A    between atoms: _515  and  _516
REMARK  212  A    between atoms: _516  and  _517
REMARK  213  A    between atoms: _517  and  _518
REMARK  214  A    between atoms: _527  and  _529
REMARK  215  A    between atoms: _529  and  _530
REMARK  216  A    between atoms: _529  and  _532
REMARK  217  A    between atoms: _532  and  _533
REMARK                            x       y       z     vdW  Elec       q    Type
REMARK                         _______ _______ _______ _____ _____    ______ ____
ROOT
ATOM      1  NE  ARG A   1      10.028  11.866  18.714  0.00  0.00    -0.265 N 
ATOM      2  CZ  ARG A   1       9.477  10.681  18.949  0.00  0.00    +0.342 C 
ATOM      3  NH2 ARG A   1       9.922   9.906  19.935  0.00  0.00    -0.292 N 
ATOM      4 HH21 ARG A   1      10.711  10.226  20.533  0.00  0.00    +0.255 HD
ATOM      5 HH22 ARG A   1       9.481   8.980  20.108  0.00  0.00    +0.255 HD
ATOM      6  NH1 ARG A   1       8.451  10.260  18.191  0.00  0.00    -0.292 N 
ATOM      7 HH11 ARG A   1       8.017   9.332  18.372  0.00  0.00    +0.255 HD
ATOM      8 HH12 ARG A   1       8.091  10.862  17.423  0.00  0.00    +0.255 HD
ATOM      9  HE  ARG A   1       9.635  12.427  17.931  0.00  0.00    +0.259 HD
ENDROOT
BRANCH   1  10
ATOM     10  CD  ARG A   1      11.123  12.439  19.451  0.00  0.00    +0.174 C 
BRANCH  10  11
ATOM     11  CG  ARG A   1      11.595  13.659  18.753  0.00  0.00    +0.044 C 
BRANCH  11  12
ATOM     12  CB  ARG A   1      12.878  14.089  19.427  0.00  0.00    +0.023 C 
BRANCH  12  13
ATOM     13  CA  ARG A   1      13.670  15.164  18.705  0.00  0.00    +0.102 C 
BRANCH  13  14
ATOM     14  N   ARG A   1      14.629  14.522  17.770  0.00  0.00    -0.244 NA
ATOM     15  H   ARG A   1      14.723  13.486  17.753  0.00  0.00    +0.141 HD
ENDBRANCH  13  14
BRANCH  13  16
ATOM     16  C   ARG A   1      14.534  15.926  19.735  0.00  0.00    +0.199 C 
ATOM     17  O   ARG A   1      15.384  15.238  20.282  0.00  0.00    -0.219 OA
ENDBRANCH  13  16
ENDBRANCH  12  13
ENDBRANCH  11  12
ENDBRANCH  10  11
ENDBRANCH   1  10
TORSDOF 6
REMARK  Name = ../refined-set-2016/1ivp/1ivp_pocket.pdb
REMARK  217 active torsions:
REMARK  status: ('A' for Active; 'I' for Inactive)
REMARK    1  A    between atoms: _1  and  _3
REMARK    2  A    between atoms: _3  and  _4
REMARK    3  A    between atoms: _3  and  _6
REMARK    4  A    between atoms: _6  and  _7
REMARK    5  A    between atoms: _7  and  _8
REMARK    6  A    between atoms: _8  and  _9
REMARK    7  A    between atoms: _18  and  _20
REMARK    8  A    between atoms: _20  and  _21
REMARK    9  A    between atoms: _20  and  _23
REMARK   10  A    between atoms: _23  and  _24
REMARK   11  A    between atoms: _27  and  _29
REMARK   12  A    between atoms: _29  and  _30
REMARK   13  A    between atoms: _29  and  _32
REMARK   14  A    between atoms: _32  and  _33
REMARK   15  A    between atoms: _36  and  _38
REMARK   16  A    between atoms: _38  and  _39
REMARK   17  A    between atoms: _38  and  _41
REMARK   18  A    between atoms: _41  and  _42
REMARK   19  A    between atoms: _45  and  _47
REMARK   20  A    between atoms: _47  and  _48
REMARK   21  A    between atoms: _47  and  _50
REMARK   22  A    between atoms: _50  and  _51
REMARK   23  A    between atoms: _54  and  _56
REMARK   24  A    between atoms: _56  and  _57
REMARK   25  A    between atoms: _59  and  _61
REMARK   26  A    between atoms: _61  and  _62
REMARK   27  A    between atoms: _65  and  _67
REMARK   28  A    between atoms: _67  and  _68
REMARK   29  A    between atoms: _67  and  _70
REMARK   30  A    between atoms: _70  and  _71
REMARK   31  A    between atoms: _74  and  _76
REMARK   32  A    between atoms: _76  and  _77
REMARK   33  A    between atoms: _76  and  _79
REMARK   34  A    between atoms: _79  and  _80
REMARK   35  A    between atoms: _83  and  _85
REMARK   36  A    between atoms: _85  and  _86
REMARK   37  A    between atoms: _85  and  _88
REMARK   38  A    between atoms: _88  and  _89
REMARK   39  A    between atoms: _91  and  _93
REMARK   40  A    between atoms: _93  and  _94
REMARK   41  A    between atoms: _93  and  _96
REMARK   42  A    between atoms: _96  and  _97
REMARK   43  A    between atoms: _100  and  _102
REMARK   44  A    between atoms: _102  and  _103
REMARK   45  A    between atoms: _102  and  _105
REMARK   46  A    between atoms: _105  and  _106
REMARK   47  A    between atoms: _109  and  _111
REMARK   48  A    between atoms: _111  and  _112
REMARK   49  A    between atoms: _111  and  _114
REMARK   50  A    between atoms: _117  and  _119
REMARK   51  A    between atoms: _119  and  _120
REMARK   52  A    between atoms: _122  and  _124
REMARK   53  A    between atoms: _124  and  _125
REMARK   54  A    between atoms: _129  and  _130
REMARK   55  A    between atoms: _129  and  _132
REMARK   56  A    between atoms: _132  and  _133
REMARK   57  A    between atoms: _136  and  _138
REMARK   58  A    between atoms: _138  and  _139
REMARK   59  A    between atoms: _141  and  _143
REMARK   60  A    between atoms: _143  and  _144
REMARK   61  A    between atoms: _146  and  _148
REMARK   62  A    between atoms: _148  and  _149
REMARK   63  A    between atoms: _148  and  _151
REMARK   64  A    between atoms: _151  and  _152
REMARK   65  A    between atoms: _158  and  _160
REMARK   66  A    between atoms: _160  and  _161
REMARK   67  A    between atoms: _160  and  _163
REMARK   68  A    between atoms: _163  and  _164
REMARK   69  A    between atoms: _167  and  _169
REMARK   70  A    between atoms: _169  and  _170
REMARK   71  A    between atoms: _169  and  _172
REMARK   72  A    between atoms: _172  and  _173
REMARK   73  A    between atoms: _173  and  _174
REMARK   74  A    between atoms: _176  and  _178
REMARK   75  A    between atoms: _178  and  _179
REMARK   76  A    between atoms: _178  and  _181
REMARK   77  A    between atoms: _181  and  _182
REMARK   78  A    between atoms: _185  and  _187
REMARK   79  A    between atoms: _187  and  _188
REMARK   80  A    between atoms: _187  and  _190
REMARK   81  A    between atoms: _190  and  _191
REMARK   82  A    between atoms: _195  and  _196
REMARK   83  A    between atoms: _201  and  _203
REMARK   84  A    between atoms: _203  and  _204
REMARK   85  A    between atoms: _203  and  _206
REMARK   86  A    between atoms: _206  and  _207
REMARK   87  A    between atoms: _210  and  _212
REMARK   88  A    between atoms: _212  and  _213
REMARK   89  A    between atoms: _212  and  _215
REMARK   90  A    between atoms: _215  and  _216
REMARK   91  A    between atoms: _221  and  _223
REMARK   92  A    between atoms: _223  and  _224
REMARK   93  A    between atoms: _223  and  _226
REMARK   94  A    between atoms: _226  and  _227
REMARK   95  A    between atoms: _230  and  _232
REMARK   96  A    between atoms: _232  and  _233
REMARK   97  A    between atoms: _232  and  _235
REMARK   98  A    between atoms: _235  and  _236
REMARK   99  A    between atoms: _242  and  _244
REMARK  100  A    between atoms: _244  and  _245
REMARK  101  A    between atoms: _247  and  _249
REMARK  102  A    between atoms: _249  and  _250
REMARK  103  A    between atoms: _249  and  _252
REMARK  104  A    between atoms: _252  and  _253
REMARK  105  A    between atoms: _253  and  _254
REMARK  106  A    between atoms: _254  and  _255
REMARK  107  A    between atoms: _264  and  _266
REMARK  108  A    between atoms: _266  and  _267
REMARK  109  A    between atoms: _266  and  _269
REMARK  110  A    between atoms: _269  and  _270
REMARK  111  A    between atoms: _270  and  _271
REMARK  112  A    between atoms: _271  and  _272
REMARK  113  A    between atoms: _281  and  _283
REMARK  114  A    between atoms: _283  and  _284
REMARK  115  A    between atoms: _283  and  _286
REMARK  116  A    between atoms: _286  and  _287
REMARK  117  A    between atoms: _290  and  _292
REMARK  118  A    between atoms: _292  and  _293
REMARK  119  A    between atoms: _292  and  _295
REMARK  120  A    between atoms: _295  and  _296
REMARK  121  A    between atoms: _299  and  _301
REMARK  122  A    between atoms: _301  and  _302
REMARK  123  A    between atoms: _301  and  _304
REMARK  124  A    between atoms: _304  and  _305
REMARK  125  A    between atoms: _308  and  _310
REMARK  126  A    between atoms: _310  and  _311
REMARK  127  A    between atoms: _310  and  _313
REMARK  128  A    between atoms: _313  and  _314
REMARK  129  A    between atoms: _317  and  _319
REMARK  130  A    between atoms: _319  and  _320
REMARK  131  A    between atoms: _322  and  _324
REMARK  132  A    between atoms: _324  and  _325
REMARK  133  A    between atoms: _328  and  _330
REMARK  134  A    between atoms: _330  and  _331
REMARK  135  A    between atoms: _330  and  _333
REMARK  136  A    between atoms: _333  and  _334
REMARK  137  A    between atoms: _337  and  _339
REMARK  138  A    between atoms: _339  and  _340
REMARK  139  A    between atoms: _339  and  _342
REMARK  140  A    between atoms: _342  and  _343
REMARK  141  A    between atoms: _346  and  _348
REMARK  142  A    between atoms: _348  and  _349
REMARK  143  A    between atoms: _348  and  _351
REMARK  144  A    between atoms: _351  and  _352
REMARK  145  A    between atoms: _354  and  _356
REMARK  146  A    between atoms: _356  and  _357
REMARK  147  A    between atoms: _356  and  _359
REMARK  148  A    between atoms: _359  and  _360
REMARK  149  A    between atoms: _363  and  _365
REMARK  150  A    between atoms: _365  and  _366
REMARK  151  A    between atoms: _365  and  _368
REMARK  152  A    between atoms: _368  and  _369
REMARK  153  A    between atoms: _372  and  _374
REMARK  154  A    between atoms: _374  and  _375
REMARK  155  A    between atoms: _374  and  _377
REMARK  156  A    between atoms: _380  and  _382
REMARK  157  A    between atoms: _382  and  _383
REMARK  158  A    between atoms: _385  and  _387
REMARK  159  A    between atoms: _387  and  _388
REMARK  160  A    between atoms: _390  and  _392
REMARK  161  A    between atoms: _392  and  _393
REMARK  162  A    between atoms: _392  and  _395
REMARK  163  A    between atoms: _395  and  _396
REMARK  164  A    between atoms: _399  and  _401
REMARK  165  A    between atoms: _401  and  _402
REMARK  166  A    between atoms: _404  and  _406
REMARK  167  A    between atoms: _406  and  _407
REMARK  168  A    between atoms: _409  and  _411
REMARK  169  A    between atoms: _411  and  _412
REMARK  170  A    between atoms: _411  and  _414
REMARK  171  A    between atoms: _414  and  _415
REMARK  172  A    between atoms: _421  and  _423
REMARK  173  A    between atoms: _423  and  _424
REMARK  174  A    between atoms: _423  and  _426
REMARK  175  A    between atoms: _426  and  _427
REMARK  176  A    between atoms: _430  and  _432
REMARK  177  A    between atoms: _432  and  _433
REMARK  178  A    between atoms: _432  and  _435
REMARK  179  A    between atoms: _435  and  _436
REMARK  180  A    between atoms: _439  and  _441
REMARK  181  A    between atoms: _441  and  _442
REMARK  182  A    between atoms: _441  and  _444
REMARK  183  A    between atoms: _444  and  _445
REMARK  184  A    between atoms: _445  and  _446
REMARK  185  A    between atoms: _448  and  _450
REMARK  186  A    between atoms: _450  and  _451
REMARK  187  A    between atoms: _450  and  _453
REMARK  188  A    between atoms: _453  and  _454
REMARK  189  A    between atoms: _458  and  _459
REMARK  190  A    between atoms: _464  and  _466
REMARK  191  A    between atoms: _466  and  _467
REMARK  192  A    between atoms: _466  and  _469
REMARK  193  A    between atoms: _469  and  _470
REMARK  194  A    between atoms: _473  and  _475
REMARK  195  A    between atoms: _475  and  _476
REMARK  196  A    between atoms: _475  and  _478
REMARK  197  A    between atoms: _478  and  _479
REMARK  198  A    between atoms: _484  and  _486
REMARK  199  A    between atoms: _486  and  _487
REMARK  200  A    between atoms: _486  and  _489
REMARK  201  A    between atoms: _489  and  _490
REMARK  202  A    between atoms: _493  and  _495
REMARK  203  A    between atoms: _495  and  _496
REMARK  204  A    between atoms: _495  and  _498
REMARK  205  A    between atoms: _498  and  _499
REMARK  206  A    between atoms: _505  and  _507
REMARK  207  A    between atoms: _507  and  _508
REMARK  208  A    between atoms: _510  and  _512
REMARK  209  A    between atoms: _512  and  _513
REMARK  210  A    between atoms: _512  and  _515
REMARK  211  A    between atoms: _515  and  _516
REMARK  212  A    between atoms: _516  and  _517
REMARK  213  A    between atoms: _517  and  _518
REMARK  214  A    between atoms: _527  and  _529
REMARK  215  A    between atoms: _529  and  _530
REMARK  216  A    between atoms: _529  and  _532
REMARK  217  A    between atoms: _532  and  _533
REMARK                            x       y       z     vdW  Elec       q    Type
REMARK                         _______ _______ _______ _____ _____    ______ ____
ROOT
ATOM      1  C   GLY A   5       2.763  23.237  21.462  0.00  0.00    +0.243 C 
ATOM      2  N   ALA A   6       3.219  23.507  22.662  0.00  0.00    -0.297 N 
ATOM      3  H   ALA A   6       4.124  24.019  22.644  0.00  0.00    +0.150 HD
ATOM      4  O   GLY A   5       1.702  22.627  21.261  0.00  0.00    -0.273 OA
ENDROOT
BRANCH   2   5
ATOM      5  CA  ALA A   6       2.745  23.252  24.003  0.00  0.00    +0.149 C 
ATOM      6  CB  ALA A   6       3.657  22.328  24.844  0.00  0.00    +0.031 C 
BRANCH   5   7
ATOM      7  C   ALA A   6       2.629  24.600  24.761  0.00  0.00    +0.241 C 
ATOM      8  N   ASP A   7       1.432  24.782  25.378  0.00  0.00    -0.297 N 
ATOM      9  H   ASP A   7       0.684  24.062  25.313  0.00  0.00    +0.150 HD
ATOM     10  O   ALA A   6       3.597  25.404  24.791  0.00  0.00    -0.273 OA
BRANCH   8  11
ATOM     11  CA  ASP A   7       1.221  26.025  26.141  0.00  0.00    +0.160 C 
BRANCH  11  12
ATOM     12  C   ASP A   7       1.825  25.752  27.538  0.00  0.00    +0.241 C 
ATOM     13  O   ASP A   7       2.447  26.629  28.228  0.00  0.00    -0.273 OA
ATOM     14  N   ASP A   8       1.724  24.472  27.908  0.00  0.00    -0.297 N 
ATOM     15  H   ASP A   8       1.288  23.814  27.230  0.00  0.00    +0.150 HD
BRANCH  14  16
ATOM     16  CA  ASP A   8       2.168  23.923  29.169  0.00  0.00    +0.160 C 
BRANCH  16  17
ATOM     17  C   ASP A   8       3.071  22.714  29.169  0.00  0.00    +0.241 C 
ATOM     18  N   SER A   9       3.610  22.466  30.369  0.00  0.00    -0.295 N 
ATOM     19  H   SER A   9       3.331  23.086  31.156  0.00  0.00    +0.150 HD
ATOM     20  O   ASP A   8       3.263  21.988  28.156  0.00  0.00    -0.273 OA
BRANCH  18  21
ATOM     21  CA  SER A   9       4.557  21.397  30.663  0.00  0.00    +0.178 C 
BRANCH  21  22
ATOM     22  C   SER A   9       3.921  20.304  31.494  0.00  0.00    +0.243 C 
ATOM     23  O   SER A   9       3.362  20.588  32.570  0.00  0.00    -0.273 OA
ATOM     24  N   ILE A  10       4.078  19.102  30.967  0.00  0.00    -0.298 N 
ATOM     25  H   ILE A  10       4.615  18.998  30.083  0.00  0.00    +0.150 HD
BRANCH  24  26
ATOM     26  CA  ILE A  10       3.504  17.907  31.612  0.00  0.00    +0.137 C 
BRANCH  26  27
ATOM     27  CB  ILE A  10       2.303  17.349  30.760  0.00  0.00    +0.026 C 
ATOM     28  CG2 ILE A  10       1.661  16.096  31.420  0.00  0.00    +0.002 C 
BRANCH  27  29
ATOM     29  CG1 ILE A  10       1.398  18.585  30.550  0.00  0.00    +0.002 C 
ATOM     30  CD1 ILE A  10       0.012  18.408  29.970  0.00  0.00    +0.000 C 
ENDBRANCH  27  29
ENDBRANCH  26  27
BRANCH  26  31
ATOM     31  C   ILE A  10       4.597  16.862  31.801  0.00  0.00    +0.227 C 
ATOM     32  O   ILE A  10       5.199  16.465  30.810  0.00  0.00    -0.286 OA
ENDBRANCH  26  31
ENDBRANCH  24  26
ENDBRANCH  21  22
BRANCH  21  33
ATOM     33  CB  SER A   9       5.837  21.917  31.319  0.00  0.00    +0.166 C 
BRANCH  33  34
ATOM     34  OG  SER A   9       6.076  23.232  30.828  0.00  0.00    -0.380 OA
ATOM     35  H   SER A   9       5.310  23.814  31.061  0.00  0.00    +0.211 HD
ENDBRANCH  33  34
ENDBRANCH  21  33
ENDBRANCH  18  21
ENDBRANCH  16  17
BRANCH  16  36
ATOM     36  CB  ASP A   8       0.851  23.468  29.850  0.00  0.00    +0.143 C 
BRANCH  36  37
ATOM     37  CG  ASP A   8      -0.135  24.626  29.891  0.00  0.00    +0.367 C 
ATOM     38  OD2 ASP A   8       0.135  25.727  30.418  0.00  0.00    -0.246 OA
ATOM     39  OD1 ASP A   8      -1.187  24.276  29.321  0.00  0.00    -0.246 OA
ENDBRANCH  36  37
ENDBRANCH  16  36
ENDBRANCH  14  16
ENDBRANCH  11  12
BRANCH  11  40
ATOM     40  CB  ASP A   7      -0.178  26.520  26.124  0.00  0.00    +0.143 C 
BRANCH  40  41
ATOM     41  CG  ASP A   7      -1.045  26.822  24.941  0.00  0.00    +0.367 C 
ATOM     42  OD2 ASP A   7      -2.163  27.400  25.018  0.00  0.00    -0.246 OA
ATOM     43  OD1 ASP A   7      -0.671  26.458  23.808  0.00  0.00    -0.246 OA
ENDBRANCH  40  41
ENDBRANCH  11  40
ENDBRANCH   8  11
ENDBRANCH   5   7
ENDBRANCH   2   5
BRANCH   1  44
ATOM     44  CA  GLY A   5       3.632  23.763  20.328  0.00  0.00    +0.176 C 
BRANCH  44  46
ATOM     45  C   THR A   4       5.711  25.065  20.478  0.00  0.00    +0.243 C 
ATOM     46  N   GLY A   5       5.010  23.955  20.688  0.00  0.00    -0.295 N 
ATOM     47  H   GLY A   5       5.498  23.162  21.150  0.00  0.00    +0.150 HD
ATOM     48  O   THR A   4       5.253  26.104  19.953  0.00  0.00    -0.273 OA
BRANCH  45  49
ATOM     49  CA  THR A   4       7.176  25.059  20.915  0.00  0.00    +0.176 C 
BRANCH  49  52
ATOM     50  C   ASP A   3       7.430  23.099  22.372  0.00  0.00    +0.241 C 
ATOM     51  O   ASP A   3       6.567  23.389  23.238  0.00  0.00    -0.273 OA
ATOM     52  N   THR A   4       7.695  23.763  21.288  0.00  0.00    -0.295 N 
ATOM     53  H   THR A   4       8.351  23.314  20.617  0.00  0.00    +0.150 HD
BRANCH  50  54
ATOM     54  CA  ASP A   3       8.105  21.740  22.499  0.00  0.00    +0.160 C 
BRANCH  54  56
ATOM     55  C   LEU A   2      10.450  21.336  23.073  0.00  0.00    +0.241 C 
ATOM     56  N   ASP A   3       9.216  21.661  23.437  0.00  0.00    -0.297 N 
ATOM     57  H   ASP A   3       9.034  21.869  24.440  0.00  0.00    +0.150 HD
ATOM     58  O   LEU A   2      10.768  21.118  21.892  0.00  0.00    -0.273 OA
BRANCH  55  59
ATOM     59  CA  LEU A   2      11.524  21.241  24.164  0.00  0.00    +0.149 C 
BRANCH  59  62
ATOM     60  C   LEU A   1      10.865  19.047  25.088  0.00  0.00    +0.238 C 
ATOM     61  O   LEU A   1       9.910  19.542  25.705  0.00  0.00    -0.274 OA
ATOM     62  N   LEU A   2      11.685  19.808  24.380  0.00  0.00    -0.297 N 
ATOM     63  H   LEU A   2      12.509  19.347  23.943  0.00  0.00    +0.150 HD
BRANCH  60  64
ATOM     64  CA  LEU A   1      11.201  17.546  25.113  0.00  0.00    +0.145 C 
BRANCH  64  65
ATOM     65  N   LEU A   1      11.214  17.094  26.500  0.00  0.00    -0.238 NA
ATOM     66  H   LEU A   1      10.301  16.927  26.970  0.00  0.00    +0.142 HD
ENDBRANCH  64  65
BRANCH  64  67
ATOM     67  CB  LEU A   1      10.235  16.662  24.345  0.00  0.00    +0.026 C 
BRANCH  67  68
ATOM     68  CG  LEU A   1       9.882  16.758  22.866  0.00  0.00    +0.002 C 
ATOM     69  CD2 LEU A   1       8.505  16.099  22.662  0.00  0.00    +0.000 C 
ATOM     70  CD1 LEU A   1      10.880  15.960  22.038  0.00  0.00    +0.000 C 
ENDBRANCH  67  68
ENDBRANCH  64  67
ENDBRANCH  60  64
ENDBRANCH  59  62
BRANCH  59  71
ATOM     71  CB  LEU A   2      12.889  21.840  23.814  0.00  0.00    +0.029 C 
BRANCH  71  72
ATOM     72  CG  LEU A   2      13.821  22.114  24.958  0.00  0.00    +0.002 C 
ATOM     73  CD2 LEU A   2      13.692  20.979  25.980  0.00  0.00    +0.000 C 
ATOM     74  CD1 LEU A   2      15.302  22.192  24.623  0.00  0.00    +0.000 C 
ENDBRANCH  71  72
ENDBRANCH  59  71
ENDBRANCH  55  59
ENDBRANCH  54  56
BRANCH  54  75
ATOM     75  CB  ASP A   3       6.977  20.780  23.035  0.00  0.00    +0.143 C 
BRANCH  75  76
ATOM     76  CG  ASP A   3       5.827  20.456  22.085  0.00  0.00    +0.367 C 
ATOM     77  OD2 ASP A   3       5.150  19.411  22.136  0.00  0.00    -0.246 OA
ATOM     78  OD1 ASP A   3       5.594  21.271  21.171  0.00  0.00    -0.246 OA
ENDBRANCH  75  76
ENDBRANCH  54  75
ENDBRANCH  50  54
ENDBRANCH  49  52
BRANCH  49  79
ATOM     79  CB  THR A   4       8.007  25.741  19.756  0.00  0.00    +0.137 C 
ATOM     80  CG2 THR A   4       9.502  25.911  20.015  0.00  0.00    +0.034 C 
BRANCH  79  81
ATOM     81  OG1 THR A   4       7.759  24.967  18.534  0.00  0.00    -0.382 OA
ATOM     82  HG1 THR A   4       6.791  24.982  18.326  0.00  0.00    +0.210 HD
ENDBRANCH  79  81
ENDBRANCH  49  79
ENDBRANCH  45  49
ENDBRANCH  44  46
ENDBRANCH   1  44
TORSDOF 36
REMARK  Name = ../refined-set-2016/1ivp/1ivp_pocket.pdb
REMARK  217 active torsions:
REMARK  status: ('A' for Active; 'I' for Inactive)
REMARK    1  A    between atoms: _1  and  _3
REMARK    2  A    between atoms: _3  and  _4
REMARK    3  A    between atoms: _3  and  _6
REMARK    4  A    between atoms: _6  and  _7
REMARK    5  A    between atoms: _7  and  _8
REMARK    6  A    between atoms: _8  and  _9
REMARK    7  A    between atoms: _18  and  _20
REMARK    8  A    between atoms: _20  and  _21
REMARK    9  A    between atoms: _20  and  _23
REMARK   10  A    between atoms: _23  and  _24
REMARK   11  A    between atoms: _27  and  _29
REMARK   12  A    between atoms: _29  and  _30
REMARK   13  A    between atoms: _29  and  _32
REMARK   14  A    between atoms: _32  and  _33
REMARK   15  A    between atoms: _36  and  _38
REMARK   16  A    between atoms: _38  and  _39
REMARK   17  A    between atoms: _38  and  _41
REMARK   18  A    between atoms: _41  and  _42
REMARK   19  A    between atoms: _45  and  _47
REMARK   20  A    between atoms: _47  and  _48
REMARK   21  A    between atoms: _47  and  _50
REMARK   22  A    between atoms: _50  and  _51
REMARK   23  A    between atoms: _54  and  _56
REMARK   24  A    between atoms: _56  and  _57
REMARK   25  A    between atoms: _59  and  _61
REMARK   26  A    between atoms: _61  and  _62
REMARK   27  A    between atoms: _65  and  _67
REMARK   28  A    between atoms: _67  and  _68
REMARK   29  A    between atoms: _67  and  _70
REMARK   30  A    between atoms: _70  and  _71
REMARK   31  A    between atoms: _74  and  _76
REMARK   32  A    between atoms: _76  and  _77
REMARK   33  A    between atoms: _76  and  _79
REMARK   34  A    between atoms: _79  and  _80
REMARK   35  A    between atoms: _83  and  _85
REMARK   36  A    between atoms: _85  and  _86
REMARK   37  A    between atoms: _85  and  _88
REMARK   38  A    between atoms: _88  and  _89
REMARK   39  A    between atoms: _91  and  _93
REMARK   40  A    between atoms: _93  and  _94
REMARK   41  A    between atoms: _93  and  _96
REMARK   42  A    between atoms: _96  and  _97
REMARK   43  A    between atoms: _100  and  _102
REMARK   44  A    between atoms: _102  and  _103
REMARK   45  A    between atoms: _102  and  _105
REMARK   46  A    between atoms: _105  and  _106
REMARK   47  A    between atoms: _109  and  _111
REMARK   48  A    between atoms: _111  and  _112
REMARK   49  A    between atoms: _111  and  _114
REMARK   50  A    between atoms: _117  and  _119
REMARK   51  A    between atoms: _119  and  _120
REMARK   52  A    between atoms: _122  and  _124
REMARK   53  A    between atoms: _124  and  _125
REMARK   54  A    between atoms: _129  and  _130
REMARK   55  A    between atoms: _129  and  _132
REMARK   56  A    between atoms: _132  and  _133
REMARK   57  A    between atoms: _136  and  _138
REMARK   58  A    between atoms: _138  and  _139
REMARK   59  A    between atoms: _141  and  _143
REMARK   60  A    between atoms: _143  and  _144
REMARK   61  A    between atoms: _146  and  _148
REMARK   62  A    between atoms: _148  and  _149
REMARK   63  A    between atoms: _148  and  _151
REMARK   64  A    between atoms: _151  and  _152
REMARK   65  A    between atoms: _158  and  _160
REMARK   66  A    between atoms: _160  and  _161
REMARK   67  A    between atoms: _160  and  _163
REMARK   68  A    between atoms: _163  and  _164
REMARK   69  A    between atoms: _167  and  _169
REMARK   70  A    between atoms: _169  and  _170
REMARK   71  A    between atoms: _169  and  _172
REMARK   72  A    between atoms: _172  and  _173
REMARK   73  A    between atoms: _173  and  _174
REMARK   74  A    between atoms: _176  and  _178
REMARK   75  A    between atoms: _178  and  _179
REMARK   76  A    between atoms: _178  and  _181
REMARK   77  A    between atoms: _181  and  _182
REMARK   78  A    between atoms: _185  and  _187
REMARK   79  A    between atoms: _187  and  _188
REMARK   80  A    between atoms: _187  and  _190
REMARK   81  A    between atoms: _190  and  _191
REMARK   82  A    between atoms: _195  and  _196
REMARK   83  A    between atoms: _201  and  _203
REMARK   84  A    between atoms: _203  and  _204
REMARK   85  A    between atoms: _203  and  _206
REMARK   86  A    between atoms: _206  and  _207
REMARK   87  A    between atoms: _210  and  _212
REMARK   88  A    between atoms: _212  and  _213
REMARK   89  A    between atoms: _212  and  _215
REMARK   90  A    between atoms: _215  and  _216
REMARK   91  A    between atoms: _221  and  _223
REMARK   92  A    between atoms: _223  and  _224
REMARK   93  A    between atoms: _223  and  _226
REMARK   94  A    between atoms: _226  and  _227
REMARK   95  A    between atoms: _230  and  _232
REMARK   96  A    between atoms: _232  and  _233
REMARK   97  A    between atoms: _232  and  _235
REMARK   98  A    between atoms: _235  and  _236
REMARK   99  A    between atoms: _242  and  _244
REMARK  100  A    between atoms: _244  and  _245
REMARK  101  A    between atoms: _247  and  _249
REMARK  102  A    between atoms: _249  and  _250
REMARK  103  A    between atoms: _249  and  _252
REMARK  104  A    between atoms: _252  and  _253
REMARK  105  A    between atoms: _253  and  _254
REMARK  106  A    between atoms: _254  and  _255
REMARK  107  A    between atoms: _264  and  _266
REMARK  108  A    between atoms: _266  and  _267
REMARK  109  A    between atoms: _266  and  _269
REMARK  110  A    between atoms: _269  and  _270
REMARK  111  A    between atoms: _270  and  _271
REMARK  112  A    between atoms: _271  and  _272
REMARK  113  A    between atoms: _281  and  _283
REMARK  114  A    between atoms: _283  and  _284
REMARK  115  A    between atoms: _283  and  _286
REMARK  116  A    between atoms: _286  and  _287
REMARK  117  A    between atoms: _290  and  _292
REMARK  118  A    between atoms: _292  and  _293
REMARK  119  A    between atoms: _292  and  _295
REMARK  120  A    between atoms: _295  and  _296
REMARK  121  A    between atoms: _299  and  _301
REMARK  122  A    between atoms: _301  and  _302
REMARK  123  A    between atoms: _301  and  _304
REMARK  124  A    between atoms: _304  and  _305
REMARK  125  A    between atoms: _308  and  _310
REMARK  126  A    between atoms: _310  and  _311
REMARK  127  A    between atoms: _310  and  _313
REMARK  128  A    between atoms: _313  and  _314
REMARK  129  A    between atoms: _317  and  _319
REMARK  130  A    between atoms: _319  and  _320
REMARK  131  A    between atoms: _322  and  _324
REMARK  132  A    between atoms: _324  and  _325
REMARK  133  A    between atoms: _328  and  _330
REMARK  134  A    between atoms: _330  and  _331
REMARK  135  A    between atoms: _330  and  _333
REMARK  136  A    between atoms: _333  and  _334
REMARK  137  A    between atoms: _337  and  _339
REMARK  138  A    between atoms: _339  and  _340
REMARK  139  A    between atoms: _339  and  _342
REMARK  140  A    between atoms: _342  and  _343
REMARK  141  A    between atoms: _346  and  _348
REMARK  142  A    between atoms: _348  and  _349
REMARK  143  A    between atoms: _348  and  _351
REMARK  144  A    between atoms: _351  and  _352
REMARK  145  A    between atoms: _354  and  _356
REMARK  146  A    between atoms: _356  and  _357
REMARK  147  A    between atoms: _356  and  _359
REMARK  148  A    between atoms: _359  and  _360
REMARK  149  A    between atoms: _363  and  _365
REMARK  150  A    between atoms: _365  and  _366
REMARK  151  A    between atoms: _365  and  _368
REMARK  152  A    between atoms: _368  and  _369
REMARK  153  A    between atoms: _372  and  _374
REMARK  154  A    between atoms: _374  and  _375
REMARK  155  A    between atoms: _374  and  _377
REMARK  156  A    between atoms: _380  and  _382
REMARK  157  A    between atoms: _382  and  _383
REMARK  158  A    between atoms: _385  and  _387
REMARK  159  A    between atoms: _387  and  _388
REMARK  160  A    between atoms: _390  and  _392
REMARK  161  A    between atoms: _392  and  _393
REMARK  162  A    between atoms: _392  and  _395
REMARK  163  A    between atoms: _395  and  _396
REMARK  164  A    between atoms: _399  and  _401
REMARK  165  A    between atoms: _401  and  _402
REMARK  166  A    between atoms: _404  and  _406
REMARK  167  A    between atoms: _406  and  _407
REMARK  168  A    between atoms: _409  and  _411
REMARK  169  A    between atoms: _411  and  _412
REMARK  170  A    between atoms: _411  and  _414
REMARK  171  A    between atoms: _414  and  _415
REMARK  172  A    between atoms: _421  and  _423
REMARK  173  A    between atoms: _423  and  _424
REMARK  174  A    between atoms: _423  and  _426
REMARK  175  A    between atoms: _426  and  _427
REMARK  176  A    between atoms: _430  and  _432
REMARK  177  A    between atoms: _432  and  _433
REMARK  178  A    between atoms: _432  and  _435
REMARK  179  A    between atoms: _435  and  _436
REMARK  180  A    between atoms: _439  and  _441
REMARK  181  A    between atoms: _441  and  _442
REMARK  182  A    between atoms: _441  and  _444
REMARK  183  A    between atoms: _444  and  _445
REMARK  184  A    between atoms: _445  and  _446
REMARK  185  A    between atoms: _448  and  _450
REMARK  186  A    between atoms: _450  and  _451
REMARK  187  A    between atoms: _450  and  _453
REMARK  188  A    between atoms: _453  and  _454
REMARK  189  A    between atoms: _458  and  _459
REMARK  190  A    between atoms: _464  and  _466
REMARK  191  A    between atoms: _466  and  _467
REMARK  192  A    between atoms: _466  and  _469
REMARK  193  A    between atoms: _469  and  _470
REMARK  194  A    between atoms: _473  and  _475
REMARK  195  A    between atoms: _475  and  _476
REMARK  196  A    between atoms: _475  and  _478
REMARK  197  A    between atoms: _478  and  _479
REMARK  198  A    between atoms: _484  and  _486
REMARK  199  A    between atoms: _486  and  _487
REMARK  200  A    between atoms: _486  and  _489
REMARK  201  A    between atoms: _489  and  _490
REMARK  202  A    between atoms: _493  and  _495
REMARK  203  A    between atoms: _495  and  _496
REMARK  204  A    between atoms: _495  and  _498
REMARK  205  A    between atoms: _498  and  _499
REMARK  206  A    between atoms: _505  and  _507
REMARK  207  A    between atoms: _507  and  _508
REMARK  208  A    between atoms: _510  and  _512
REMARK  209  A    between atoms: _512  and  _513
REMARK  210  A    between atoms: _512  and  _515
REMARK  211  A    between atoms: _515  and  _516
REMARK  212  A    between atoms: _516  and  _517
REMARK  213  A    between atoms: _517  and  _518
REMARK  214  A    between atoms: _527  and  _529
REMARK  215  A    between atoms: _529  and  _530
REMARK  216  A    between atoms: _529  and  _532
REMARK  217  A    between atoms: _532  and  _533
REMARK                            x       y       z     vdW  Elec       q    Type
REMARK                         _______ _______ _______ _____ _____    ______ ____
ROOT
ATOM      1  C   GLY A   4      -4.728  16.874  21.258  0.00  0.00    +0.246 C 
ATOM      2  O   GLY A   4      -5.963  16.813  21.467  0.00  0.00    -0.273 OA
ATOM      3  N   ILE A   5      -4.130  16.275  20.263  0.00  0.00    -0.282 N 
ATOM      4  H   ILE A   5      -3.093  16.340  20.224  0.00  0.00    +0.155 HD
ATOM      5  CA  ILE A   5      -4.797  15.516  19.192  0.00  0.00    +0.081 C 
ENDROOT
BRANCH   5   6
ATOM      6  C   ILE A   5      -5.687  14.314  19.519  0.00  0.00    +0.256 C 
ATOM      7  N   GLY A   6      -5.423  13.451  20.488  0.00  0.00    -0.292 N 
ATOM      8  H   GLY A   6      -4.571  13.564  21.073  0.00  0.00    +0.150 HD
ATOM      9  O   ILE A   5      -6.725  14.109  18.804  0.00  0.00    -0.269 OA
BRANCH   7  10
ATOM     10  CA  GLY A   6      -6.360  12.315  20.733  0.00  0.00    +0.176 C 
BRANCH  10  11
ATOM     11  C   GLY A   6      -7.561  12.678  21.595  0.00  0.00    +0.243 C 
ATOM     12  N   GLY A   7      -7.463  13.764  22.304  0.00  0.00    -0.295 N 
ATOM     13  H   GLY A   7      -6.576  14.298  22.204  0.00  0.00    +0.150 HD
ATOM     14  O   GLY A   6      -8.618  12.011  21.714  0.00  0.00    -0.273 OA
BRANCH  12  15
ATOM     15  CA  GLY A   7      -8.434  14.314  23.209  0.00  0.00    +0.176 C 
BRANCH  15  16
ATOM     16  C   GLY A   7      -7.788  15.182  24.291  0.00  0.00    +0.243 C 
ATOM     17  N   PHE A   8      -8.288  14.921  25.478  0.00  0.00    -0.297 N 
ATOM     18  H   PHE A   8      -8.965  14.131  25.474  0.00  0.00    +0.150 HD
ATOM     19  O   GLY A   7      -6.955  16.055  24.042  0.00  0.00    -0.273 OA
BRANCH  17  20
ATOM     20  CA  PHE A   8      -8.095  15.501  26.787  0.00  0.00    +0.153 C 
BRANCH  20  21
ATOM     21  C   PHE A   8      -7.642  14.530  27.893  0.00  0.00    +0.241 C 
ATOM     22  N   ILE A   9      -6.683  14.948  28.680  0.00  0.00    -0.298 N 
ATOM     23  H   ILE A   9      -6.270  15.876  28.459  0.00  0.00    +0.150 HD
ATOM     24  O   PHE A   8      -8.304  13.490  27.989  0.00  0.00    -0.273 OA
BRANCH  22  25
ATOM     25  CA  ILE A   9      -6.127  14.237  29.850  0.00  0.00    +0.137 C 
BRANCH  25  26
ATOM     26  C   ILE A   9      -6.408  15.031  31.122  0.00  0.00    +0.227 C 
ATOM     27  O   ILE A   9      -6.723  16.228  31.068  0.00  0.00    -0.286 OA
ENDBRANCH  25  26
BRANCH  25  28
ATOM     28  CB  ILE A   9      -4.602  13.990  29.529  0.00  0.00    +0.026 C 
ATOM     29  CG2 ILE A   9      -3.544  14.301  30.589  0.00  0.00    +0.002 C 
BRANCH  28  30
ATOM     30  CG1 ILE A   9      -4.513  12.581  28.899  0.00  0.00    +0.002 C 
ATOM     31  CD1 ILE A   9      -3.210  12.351  28.088  0.00  0.00    +0.000 C 
ENDBRANCH  28  30
ENDBRANCH  25  28
ENDBRANCH  22  25
ENDBRANCH  20  21
BRANCH  20  32
ATOM     32  CB  PHE A   8      -9.470  16.030  27.310  0.00  0.00    +0.055 C 
BRANCH  32  33
ATOM     33  CG  PHE A   8      -9.861  17.319  26.639  0.00  0.00    -0.020 A 
ATOM     34  CD2 PHE A   8      -9.282  18.511  27.006  0.00  0.00    -0.004 A 
ATOM     35  CE2 PHE A   8      -9.579  19.688  26.355  0.00  0.00    -0.000 A 
ATOM     36  CZ  PHE A   8     -10.484  19.716  25.303  0.00  0.00    -0.000 A 
ATOM     37  CE1 PHE A   8     -11.100  18.506  24.919  0.00  0.00    -0.000 A 
ATOM     38  CD1 PHE A   8     -10.790  17.325  25.588  0.00  0.00    -0.004 A 
ENDBRANCH  32  33
ENDBRANCH  20  32
ENDBRANCH  17  20
ENDBRANCH  15  16
ENDBRANCH  12  15
ENDBRANCH  10  11
ENDBRANCH   7  10
ENDBRANCH   5   6
BRANCH   5  39
ATOM     39  CB  ILE A   5      -3.843  15.205  17.958  0.00  0.00    +0.041 C 
ATOM     40  CG2 ILE A   5      -3.305  16.367  17.104  0.00  0.00    +0.006 C 
BRANCH  39  41
ATOM     41  CG1 ILE A   5      -2.654  14.337  18.389  0.00  0.00    +0.006 C 
ATOM     42  CD1 ILE A   5      -2.971  12.817  18.241  0.00  0.00    +0.000 C 
ENDBRANCH  39  41
ENDBRANCH   5  39
BRANCH   1  43
ATOM     43  CA  GLY A   4      -4.015  17.667  22.350  0.00  0.00    +0.176 C 
BRANCH  43  46
ATOM     44  C   GLY A   3      -4.748  18.733  24.500  0.00  0.00    +0.243 C 
ATOM     45  O   GLY A   3      -3.797  19.523  24.643  0.00  0.00    -0.273 OA
ATOM     46  N   GLY A   4      -4.925  17.892  23.482  0.00  0.00    -0.295 N 
ATOM     47  H   GLY A   4      -5.803  17.334  23.489  0.00  0.00    +0.150 HD
BRANCH  44  48
ATOM     48  CA  GLY A   3      -5.928  18.666  25.488  0.00  0.00    +0.176 C 
BRANCH  48  51
ATOM     49  C   VAL A   2      -5.801  18.542  27.990  0.00  0.00    +0.241 C 
ATOM     50  O   VAL A   2      -6.331  17.435  28.038  0.00  0.00    -0.273 OA
ATOM     51  N   GLY A   3      -5.624  19.109  26.819  0.00  0.00    -0.295 N 
ATOM     52  H   GLY A   3      -5.184  20.050  26.864  0.00  0.00    +0.150 HD
BRANCH  49  53
ATOM     53  CA  VAL A   2      -5.307  19.347  29.194  0.00  0.00    +0.148 C 
BRANCH  53  56
ATOM     54  C   ILE A   1      -6.834  19.616  31.121  0.00  0.00    +0.238 C 
ATOM     55  O   ILE A   1      -7.050  20.828  30.968  0.00  0.00    -0.274 OA
ATOM     56  N   VAL A   2      -6.023  18.883  30.377  0.00  0.00    -0.297 N 
ATOM     57  H   VAL A   2      -5.884  17.892  30.659  0.00  0.00    +0.150 HD
BRANCH  54  58
ATOM     58  CA  ILE A   1      -7.501  18.821  32.253  0.00  0.00    +0.145 C 
BRANCH  58  59
ATOM     59  N   ILE A   1      -7.489  19.711  33.412  0.00  0.00    -0.238 NA
ATOM     60  H   ILE A   1      -7.967  20.634  33.375  0.00  0.00    +0.142 HD
ENDBRANCH  58  59
BRANCH  58  61
ATOM     61  CB  ILE A   1      -8.854  18.257  31.716  0.00  0.00    +0.025 C 
ATOM     62  CG2 ILE A   1      -9.798  17.649  32.787  0.00  0.00    +0.002 C 
BRANCH  61  63
ATOM     63  CG1 ILE A   1      -9.509  19.403  30.892  0.00  0.00    +0.002 C 
ATOM     64  CD1 ILE A   1     -10.917  19.025  30.330  0.00  0.00    +0.000 C 
ENDBRANCH  61  63
ENDBRANCH  58  61
ENDBRANCH  54  58
ENDBRANCH  53  56
BRANCH  53  65
ATOM     65  CB  VAL A   2      -3.795  19.353  29.426  0.00  0.00    +0.027 C 
ATOM     66  CG2 VAL A   2      -3.239  20.460  30.308  0.00  0.00    +0.002 C 
ATOM     67  CG1 VAL A   2      -3.302  18.004  29.914  0.00  0.00    +0.002 C 
ENDBRANCH  53  65
ENDBRANCH  49  53
ENDBRANCH  48  51
ENDBRANCH  44  48
ENDBRANCH  43  46
ENDBRANCH   1  43
TORSDOF 26
REMARK  Name = ../refined-set-2016/1ivp/1ivp_pocket.pdb
REMARK  217 active torsions:
REMARK  status: ('A' for Active; 'I' for Inactive)
REMARK    1  A    between atoms: _1  and  _3
REMARK    2  A    between atoms: _3  and  _4
REMARK    3  A    between atoms: _3  and  _6
REMARK    4  A    between atoms: _6  and  _7
REMARK    5  A    between atoms: _7  and  _8
REMARK    6  A    between atoms: _8  and  _9
REMARK    7  A    between atoms: _18  and  _20
REMARK    8  A    between atoms: _20  and  _21
REMARK    9  A    between atoms: _20  and  _23
REMARK   10  A    between atoms: _23  and  _24
REMARK   11  A    between atoms: _27  and  _29
REMARK   12  A    between atoms: _29  and  _30
REMARK   13  A    between atoms: _29  and  _32
REMARK   14  A    between atoms: _32  and  _33
REMARK   15  A    between atoms: _36  and  _38
REMARK   16  A    between atoms: _38  and  _39
REMARK   17  A    between atoms: _38  and  _41
REMARK   18  A    between atoms: _41  and  _42
REMARK   19  A    between atoms: _45  and  _47
REMARK   20  A    between atoms: _47  and  _48
REMARK   21  A    between atoms: _47  and  _50
REMARK   22  A    between atoms: _50  and  _51
REMARK   23  A    between atoms: _54  and  _56
REMARK   24  A    between atoms: _56  and  _57
REMARK   25  A    between atoms: _59  and  _61
REMARK   26  A    between atoms: _61  and  _62
REMARK   27  A    between atoms: _65  and  _67
REMARK   28  A    between atoms: _67  and  _68
REMARK   29  A    between atoms: _67  and  _70
REMARK   30  A    between atoms: _70  and  _71
REMARK   31  A    between atoms: _74  and  _76
REMARK   32  A    between atoms: _76  and  _77
REMARK   33  A    between atoms: _76  and  _79
REMARK   34  A    between atoms: _79  and  _80
REMARK   35  A    between atoms: _83  and  _85
REMARK   36  A    between atoms: _85  and  _86
REMARK   37  A    between atoms: _85  and  _88
REMARK   38  A    between atoms: _88  and  _89
REMARK   39  A    between atoms: _91  and  _93
REMARK   40  A    between atoms: _93  and  _94
REMARK   41  A    between atoms: _93  and  _96
REMARK   42  A    between atoms: _96  and  _97
REMARK   43  A    between atoms: _100  and  _102
REMARK   44  A    between atoms: _102  and  _103
REMARK   45  A    between atoms: _102  and  _105
REMARK   46  A    between atoms: _105  and  _106
REMARK   47  A    between atoms: _109  and  _111
REMARK   48  A    between atoms: _111  and  _112
REMARK   49  A    between atoms: _111  and  _114
REMARK   50  A    between atoms: _117  and  _119
REMARK   51  A    between atoms: _119  and  _120
REMARK   52  A    between atoms: _122  and  _124
REMARK   53  A    between atoms: _124  and  _125
REMARK   54  A    between atoms: _129  and  _130
REMARK   55  A    between atoms: _129  and  _132
REMARK   56  A    between atoms: _132  and  _133
REMARK   57  A    between atoms: _136  and  _138
REMARK   58  A    between atoms: _138  and  _139
REMARK   59  A    between atoms: _141  and  _143
REMARK   60  A    between atoms: _143  and  _144
REMARK   61  A    between atoms: _146  and  _148
REMARK   62  A    between atoms: _148  and  _149
REMARK   63  A    between atoms: _148  and  _151
REMARK   64  A    between atoms: _151  and  _152
REMARK   65  A    between atoms: _158  and  _160
REMARK   66  A    between atoms: _160  and  _161
REMARK   67  A    between atoms: _160  and  _163
REMARK   68  A    between atoms: _163  and  _164
REMARK   69  A    between atoms: _167  and  _169
REMARK   70  A    between atoms: _169  and  _170
REMARK   71  A    between atoms: _169  and  _172
REMARK   72  A    between atoms: _172  and  _173
REMARK   73  A    between atoms: _173  and  _174
REMARK   74  A    between atoms: _176  and  _178
REMARK   75  A    between atoms: _178  and  _179
REMARK   76  A    between atoms: _178  and  _181
REMARK   77  A    between atoms: _181  and  _182
REMARK   78  A    between atoms: _185  and  _187
REMARK   79  A    between atoms: _187  and  _188
REMARK   80  A    between atoms: _187  and  _190
REMARK   81  A    between atoms: _190  and  _191
REMARK   82  A    between atoms: _195  and  _196
REMARK   83  A    between atoms: _201  and  _203
REMARK   84  A    between atoms: _203  and  _204
REMARK   85  A    between atoms: _203  and  _206
REMARK   86  A    between atoms: _206  and  _207
REMARK   87  A    between atoms: _210  and  _212
REMARK   88  A    between atoms: _212  and  _213
REMARK   89  A    between atoms: _212  and  _215
REMARK   90  A    between atoms: _215  and  _216
REMARK   91  A    between atoms: _221  and  _223
REMARK   92  A    between atoms: _223  and  _224
REMARK   93  A    between atoms: _223  and  _226
REMARK   94  A    between atoms: _226  and  _227
REMARK   95  A    between atoms: _230  and  _232
REMARK   96  A    between atoms: _232  and  _233
REMARK   97  A    between atoms: _232  and  _235
REMARK   98  A    between atoms: _235  and  _236
REMARK   99  A    between atoms: _242  and  _244
REMARK  100  A    between atoms: _244  and  _245
REMARK  101  A    between atoms: _247  and  _249
REMARK  102  A    between atoms: _249  and  _250
REMARK  103  A    between atoms: _249  and  _252
REMARK  104  A    between atoms: _252  and  _253
REMARK  105  A    between atoms: _253  and  _254
REMARK  106  A    between atoms: _254  and  _255
REMARK  107  A    between atoms: _264  and  _266
REMARK  108  A    between atoms: _266  and  _267
REMARK  109  A    between atoms: _266  and  _269
REMARK  110  A    between atoms: _269  and  _270
REMARK  111  A    between atoms: _270  and  _271
REMARK  112  A    between atoms: _271  and  _272
REMARK  113  A    between atoms: _281  and  _283
REMARK  114  A    between atoms: _283  and  _284
REMARK  115  A    between atoms: _283  and  _286
REMARK  116  A    between atoms: _286  and  _287
REMARK  117  A    between atoms: _290  and  _292
REMARK  118  A    between atoms: _292  and  _293
REMARK  119  A    between atoms: _292  and  _295
REMARK  120  A    between atoms: _295  and  _296
REMARK  121  A    between atoms: _299  and  _301
REMARK  122  A    between atoms: _301  and  _302
REMARK  123  A    between atoms: _301  and  _304
REMARK  124  A    between atoms: _304  and  _305
REMARK  125  A    between atoms: _308  and  _310
REMARK  126  A    between atoms: _310  and  _311
REMARK  127  A    between atoms: _310  and  _313
REMARK  128  A    between atoms: _313  and  _314
REMARK  129  A    between atoms: _317  and  _319
REMARK  130  A    between atoms: _319  and  _320
REMARK  131  A    between atoms: _322  and  _324
REMARK  132  A    between atoms: _324  and  _325
REMARK  133  A    between atoms: _328  and  _330
REMARK  134  A    between atoms: _330  and  _331
REMARK  135  A    between atoms: _330  and  _333
REMARK  136  A    between atoms: _333  and  _334
REMARK  137  A    between atoms: _337  and  _339
REMARK  138  A    between atoms: _339  and  _340
REMARK  139  A    between atoms: _339  and  _342
REMARK  140  A    between atoms: _342  and  _343
REMARK  141  A    between atoms: _346  and  _348
REMARK  142  A    between atoms: _348  and  _349
REMARK  143  A    between atoms: _348  and  _351
REMARK  144  A    between atoms: _351  and  _352
REMARK  145  A    between atoms: _354  and  _356
REMARK  146  A    between atoms: _356  and  _357
REMARK  147  A    between atoms: _356  and  _359
REMARK  148  A    between atoms: _359  and  _360
REMARK  149  A    between atoms: _363  and  _365
REMARK  150  A    between atoms: _365  and  _366
REMARK  151  A    between atoms: _365  and  _368
REMARK  152  A    between atoms: _368  and  _369
REMARK  153  A    between atoms: _372  and  _374
REMARK  154  A    between atoms: _374  and  _375
REMARK  155  A    between atoms: _374  and  _377
REMARK  156  A    between atoms: _380  and  _382
REMARK  157  A    between atoms: _382  and  _383
REMARK  158  A    between atoms: _385  and  _387
REMARK  159  A    between atoms: _387  and  _388
REMARK  160  A    between atoms: _390  and  _392
REMARK  161  A    between atoms: _392  and  _393
REMARK  162  A    between atoms: _392  and  _395
REMARK  163  A    between atoms: _395  and  _396
REMARK  164  A    between atoms: _399  and  _401
REMARK  165  A    between atoms: _401  and  _402
REMARK  166  A    between atoms: _404  and  _406
REMARK  167  A    between atoms: _406  and  _407
REMARK  168  A    between atoms: _409  and  _411
REMARK  169  A    between atoms: _411  and  _412
REMARK  170  A    between atoms: _411  and  _414
REMARK  171  A    between atoms: _414  and  _415
REMARK  172  A    between atoms: _421  and  _423
REMARK  173  A    between atoms: _423  and  _424
REMARK  174  A    between atoms: _423  and  _426
REMARK  175  A    between atoms: _426  and  _427
REMARK  176  A    between atoms: _430  and  _432
REMARK  177  A    between atoms: _432  and  _433
REMARK  178  A    between atoms: _432  and  _435
REMARK  179  A    between atoms: _435  and  _436
REMARK  180  A    between atoms: _439  and  _441
REMARK  181  A    between atoms: _441  and  _442
REMARK  182  A    between atoms: _441  and  _444
REMARK  183  A    between atoms: _444  and  _445
REMARK  184  A    between atoms: _445  and  _446
REMARK  185  A    between atoms: _448  and  _450
REMARK  186  A    between atoms: _450  and  _451
REMARK  187  A    between atoms: _450  and  _453
REMARK  188  A    between atoms: _453  and  _454
REMARK  189  A    between atoms: _458  and  _459
REMARK  190  A    between atoms: _464  and  _466
REMARK  191  A    between atoms: _466  and  _467
REMARK  192  A    between atoms: _466  and  _469
REMARK  193  A    between atoms: _469  and  _470
REMARK  194  A    between atoms: _473  and  _475
REMARK  195  A    between atoms: _475  and  _476
REMARK  196  A    between atoms: _475  and  _478
REMARK  197  A    between atoms: _478  and  _479
REMARK  198  A    between atoms: _484  and  _486
REMARK  199  A    between atoms: _486  and  _487
REMARK  200  A    between atoms: _486  and  _489
REMARK  201  A    between atoms: _489  and  _490
REMARK  202  A    between atoms: _493  and  _495
REMARK  203  A    between atoms: _495  and  _496
REMARK  204  A    between atoms: _495  and  _498
REMARK  205  A    between atoms: _498  and  _499
REMARK  206  A    between atoms: _505  and  _507
REMARK  207  A    between atoms: _507  and  _508
REMARK  208  A    between atoms: _510  and  _512
REMARK  209  A    between atoms: _512  and  _513
REMARK  210  A    between atoms: _512  and  _515
REMARK  211  A    between atoms: _515  and  _516
REMARK  212  A    between atoms: _516  and  _517
REMARK  213  A    between atoms: _517  and  _518
REMARK  214  A    between atoms: _527  and  _529
REMARK  215  A    between atoms: _529  and  _530
REMARK  216  A    between atoms: _529  and  _532
REMARK  217  A    between atoms: _532  and  _533
REMARK                            x       y       z     vdW  Elec       q    Type
REMARK                         _______ _______ _______ _____ _____    ______ ____
ROOT
ATOM      1  CA  MET A   1       1.310  19.969  35.530  0.00  0.00    +0.134 C 
ENDROOT
BRANCH   1   2
ATOM      2  N   MET A   1       2.584  20.762  35.572  0.00  0.00    -0.239 NA
ATOM      3  H   MET A   1       3.163  20.823  34.710  0.00  0.00    +0.142 HD
ENDBRANCH   1   2
BRANCH   1   4
ATOM      4  C   MET A   1       1.631  18.494  35.493  0.00  0.00    +0.224 C 
ATOM      5  O   MET A   1       2.379  18.099  34.568  0.00  0.00    -0.287 OA
ENDBRANCH   1   4
BRANCH   1   6
ATOM      6  CB  MET A   1       0.596  20.496  34.271  0.00  0.00    +0.037 C 
BRANCH   6   7
ATOM      7  CG  MET A   1      -0.888  20.470  34.192  0.00  0.00    +0.059 C 
BRANCH   7   8
ATOM      8  SD  MET A   1      -1.497  22.097  33.583  0.00  0.00    -0.139 S 
ATOM      9  CE  MET A   1      -0.457  23.195  34.539  0.00  0.00    +0.069 C 
ENDBRANCH   7   8
ENDBRANCH   6   7
ENDBRANCH   1   6
TORSDOF 5
REMARK  Name = ../refined-set-2016/1ivp/1ivp_pocket.pdb
REMARK  217 active torsions:
REMARK  status: ('A' for Active; 'I' for Inactive)
REMARK    1  A    between atoms: _1  and  _3
REMARK    2  A    between atoms: _3  and  _4
REMARK    3  A    between atoms: _3  and  _6
REMARK    4  A    between atoms: _6  and  _7
REMARK    5  A    between atoms: _7  and  _8
REMARK    6  A    between atoms: _8  and  _9
REMARK    7  A    between atoms: _18  and  _20
REMARK    8  A    between atoms: _20  and  _21
REMARK    9  A    between atoms: _20  and  _23
REMARK   10  A    between atoms: _23  and  _24
REMARK   11  A    between atoms: _27  and  _29
REMARK   12  A    between atoms: _29  and  _30
REMARK   13  A    between atoms: _29  and  _32
REMARK   14  A    between atoms: _32  and  _33
REMARK   15  A    between atoms: _36  and  _38
REMARK   16  A    between atoms: _38  and  _39
REMARK   17  A    between atoms: _38  and  _41
REMARK   18  A    between atoms: _41  and  _42
REMARK   19  A    between atoms: _45  and  _47
REMARK   20  A    between atoms: _47  and  _48
REMARK   21  A    between atoms: _47  and  _50
REMARK   22  A    between atoms: _50  and  _51
REMARK   23  A    between atoms: _54  and  _56
REMARK   24  A    between atoms: _56  and  _57
REMARK   25  A    between atoms: _59  and  _61
REMARK   26  A    between atoms: _61  and  _62
REMARK   27  A    between atoms: _65  and  _67
REMARK   28  A    between atoms: _67  and  _68
REMARK   29  A    between atoms: _67  and  _70
REMARK   30  A    between atoms: _70  and  _71
REMARK   31  A    between atoms: _74  and  _76
REMARK   32  A    between atoms: _76  and  _77
REMARK   33  A    between atoms: _76  and  _79
REMARK   34  A    between atoms: _79  and  _80
REMARK   35  A    between atoms: _83  and  _85
REMARK   36  A    between atoms: _85  and  _86
REMARK   37  A    between atoms: _85  and  _88
REMARK   38  A    between atoms: _88  and  _89
REMARK   39  A    between atoms: _91  and  _93
REMARK   40  A    between atoms: _93  and  _94
REMARK   41  A    between atoms: _93  and  _96
REMARK   42  A    between atoms: _96  and  _97
REMARK   43  A    between atoms: _100  and  _102
REMARK   44  A    between atoms: _102  and  _103
REMARK   45  A    between atoms: _102  and  _105
REMARK   46  A    between atoms: _105  and  _106
REMARK   47  A    between atoms: _109  and  _111
REMARK   48  A    between atoms: _111  and  _112
REMARK   49  A    between atoms: _111  and  _114
REMARK   50  A    between atoms: _117  and  _119
REMARK   51  A    between atoms: _119  and  _120
REMARK   52  A    between atoms: _122  and  _124
REMARK   53  A    between atoms: _124  and  _125
REMARK   54  A    between atoms: _129  and  _130
REMARK   55  A    between atoms: _129  and  _132
REMARK   56  A    between atoms: _132  and  _133
REMARK   57  A    between atoms: _136  and  _138
REMARK   58  A    between atoms: _138  and  _139
REMARK   59  A    between atoms: _141  and  _143
REMARK   60  A    between atoms: _143  and  _144
REMARK   61  A    between atoms: _146  and  _148
REMARK   62  A    between atoms: _148  and  _149
REMARK   63  A    between atoms: _148  and  _151
REMARK   64  A    between atoms: _151  and  _152
REMARK   65  A    between atoms: _158  and  _160
REMARK   66  A    between atoms: _160  and  _161
REMARK   67  A    between atoms: _160  and  _163
REMARK   68  A    between atoms: _163  and  _164
REMARK   69  A    between atoms: _167  and  _169
REMARK   70  A    between atoms: _169  and  _170
REMARK   71  A    between atoms: _169  and  _172
REMARK   72  A    between atoms: _172  and  _173
REMARK   73  A    between atoms: _173  and  _174
REMARK   74  A    between atoms: _176  and  _178
REMARK   75  A    between atoms: _178  and  _179
REMARK   76  A    between atoms: _178  and  _181
REMARK   77  A    between atoms: _181  and  _182
REMARK   78  A    between atoms: _185  and  _187
REMARK   79  A    between atoms: _187  and  _188
REMARK   80  A    between atoms: _187  and  _190
REMARK   81  A    between atoms: _190  and  _191
REMARK   82  A    between atoms: _195  and  _196
REMARK   83  A    between atoms: _201  and  _203
REMARK   84  A    between atoms: _203  and  _204
REMARK   85  A    between atoms: _203  and  _206
REMARK   86  A    between atoms: _206  and  _207
REMARK   87  A    between atoms: _210  and  _212
REMARK   88  A    between atoms: _212  and  _213
REMARK   89  A    between atoms: _212  and  _215
REMARK   90  A    between atoms: _215  and  _216
REMARK   91  A    between atoms: _221  and  _223
REMARK   92  A    between atoms: _223  and  _224
REMARK   93  A    between atoms: _223  and  _226
REMARK   94  A    between atoms: _226  and  _227
REMARK   95  A    between atoms: _230  and  _232
REMARK   96  A    between atoms: _232  and  _233
REMARK   97  A    between atoms: _232  and  _235
REMARK   98  A    between atoms: _235  and  _236
REMARK   99  A    between atoms: _242  and  _244
REMARK  100  A    between atoms: _244  and  _245
REMARK  101  A    between atoms: _247  and  _249
REMARK  102  A    between atoms: _249  and  _250
REMARK  103  A    between atoms: _249  and  _252
REMARK  104  A    between atoms: _252  and  _253
REMARK  105  A    between atoms: _253  and  _254
REMARK  106  A    between atoms: _254  and  _255
REMARK  107  A    between atoms: _264  and  _266
REMARK  108  A    between atoms: _266  and  _267
REMARK  109  A    between atoms: _266  and  _269
REMARK  110  A    between atoms: _269  and  _270
REMARK  111  A    between atoms: _270  and  _271
REMARK  112  A    between atoms: _271  and  _272
REMARK  113  A    between atoms: _281  and  _283
REMARK  114  A    between atoms: _283  and  _284
REMARK  115  A    between atoms: _283  and  _286
REMARK  116  A    between atoms: _286  and  _287
REMARK  117  A    between atoms: _290  and  _292
REMARK  118  A    between atoms: _292  and  _293
REMARK  119  A    between atoms: _292  and  _295
REMARK  120  A    between atoms: _295  and  _296
REMARK  121  A    between atoms: _299  and  _301
REMARK  122  A    between atoms: _301  and  _302
REMARK  123  A    between atoms: _301  and  _304
REMARK  124  A    between atoms: _304  and  _305
REMARK  125  A    between atoms: _308  and  _310
REMARK  126  A    between atoms: _310  and  _311
REMARK  127  A    between atoms: _310  and  _313
REMARK  128  A    between atoms: _313  and  _314
REMARK  129  A    between atoms: _317  and  _319
REMARK  130  A    between atoms: _319  and  _320
REMARK  131  A    between atoms: _322  and  _324
REMARK  132  A    between atoms: _324  and  _325
REMARK  133  A    between atoms: _328  and  _330
REMARK  134  A    between atoms: _330  and  _331
REMARK  135  A    between atoms: _330  and  _333
REMARK  136  A    between atoms: _333  and  _334
REMARK  137  A    between atoms: _337  and  _339
REMARK  138  A    between atoms: _339  and  _340
REMARK  139  A    between atoms: _339  and  _342
REMARK  140  A    between atoms: _342  and  _343
REMARK  141  A    between atoms: _346  and  _348
REMARK  142  A    between atoms: _348  and  _349
REMARK  143  A    between atoms: _348  and  _351
REMARK  144  A    between atoms: _351  and  _352
REMARK  145  A    between atoms: _354  and  _356
REMARK  146  A    between atoms: _356  and  _357
REMARK  147  A    between atoms: _356  and  _359
REMARK  148  A    between atoms: _359  and  _360
REMARK  149  A    between atoms: _363  and  _365
REMARK  150  A    between atoms: _365  and  _366
REMARK  151  A    between atoms: _365  and  _368
REMARK  152  A    between atoms: _368  and  _369
REMARK  153  A    between atoms: _372  and  _374
REMARK  154  A    between atoms: _374  and  _375
REMARK  155  A    between atoms: _374  and  _377
REMARK  156  A    between atoms: _380  and  _382
REMARK  157  A    between atoms: _382  and  _383
REMARK  158  A    between atoms: _385  and  _387
REMARK  159  A    between atoms: _387  and  _388
REMARK  160  A    between atoms: _390  and  _392
REMARK  161  A    between atoms: _392  and  _393
REMARK  162  A    between atoms: _392  and  _395
REMARK  163  A    between atoms: _395  and  _396
REMARK  164  A    between atoms: _399  and  _401
REMARK  165  A    between atoms: _401  and  _402
REMARK  166  A    between atoms: _404  and  _406
REMARK  167  A    between atoms: _406  and  _407
REMARK  168  A    between atoms: _409  and  _411
REMARK  169  A    between atoms: _411  and  _412
REMARK  170  A    between atoms: _411  and  _414
REMARK  171  A    between atoms: _414  and  _415
REMARK  172  A    between atoms: _421  and  _423
REMARK  173  A    between atoms: _423  and  _424
REMARK  174  A    between atoms: _423  and  _426
REMARK  175  A    between atoms: _426  and  _427
REMARK  176  A    between atoms: _430  and  _432
REMARK  177  A    between atoms: _432  and  _433
REMARK  178  A    between atoms: _432  and  _435
REMARK  179  A    between atoms: _435  and  _436
REMARK  180  A    between atoms: _439  and  _441
REMARK  181  A    between atoms: _441  and  _442
REMARK  182  A    between atoms: _441  and  _444
REMARK  183  A    between atoms: _444  and  _445
REMARK  184  A    between atoms: _445  and  _446
REMARK  185  A    between atoms: _448  and  _450
REMARK  186  A    between atoms: _450  and  _451
REMARK  187  A    between atoms: _450  and  _453
REMARK  188  A    between atoms: _453  and  _454
REMARK  189  A    between atoms: _458  and  _459
REMARK  190  A    between atoms: _464  and  _466
REMARK  191  A    between atoms: _466  and  _467
REMARK  192  A    between atoms: _466  and  _469
REMARK  193  A    between atoms: _469  and  _470
REMARK  194  A    between atoms: _473  and  _475
REMARK  195  A    between atoms: _475  and  _476
REMARK  196  A    between atoms: _475  and  _478
REMARK  197  A    between atoms: _478  and  _479
REMARK  198  A    between atoms: _484  and  _486
REMARK  199  A    between atoms: _486  and  _487
REMARK  200  A    between atoms: _486  and  _489
REMARK  201  A    between atoms: _489  and  _490
REMARK  202  A    between atoms: _493  and  _495
REMARK  203  A    between atoms: _495  and  _496
REMARK  204  A    between atoms: _495  and  _498
REMARK  205  A    between atoms: _498  and  _499
REMARK  206  A    between atoms: _505  and  _507
REMARK  207  A    between atoms: _507  and  _508
REMARK  208  A    between atoms: _510  and  _512
REMARK  209  A    between atoms: _512  and  _513
REMARK  210  A    between atoms: _512  and  _515
REMARK  211  A    between atoms: _515  and  _516
REMARK  212  A    between atoms: _516  and  _517
REMARK  213  A    between atoms: _517  and  _518
REMARK  214  A    between atoms: _527  and  _529
REMARK  215  A    between atoms: _529  and  _530
REMARK  216  A    between atoms: _529  and  _532
REMARK  217  A    between atoms: _532  and  _533
REMARK                            x       y       z     vdW  Elec       q    Type
REMARK                         _______ _______ _______ _____ _____    ______ ____
ROOT
ATOM      1  C   ASN A   5       8.020  15.936  28.445  0.00  0.00    +0.241 C 
ATOM      2  N   ILE A   6       6.988  16.764  28.353  0.00  0.00    -0.297 N 
ATOM      3  H   ILE A   6       6.146  16.588  28.937  0.00  0.00    +0.150 HD
ATOM      4  O   ASN A   5       9.036  16.021  27.756  0.00  0.00    -0.273 OA
ENDROOT
BRANCH   2   5
ATOM      5  CA  ILE A   6       7.000  17.924  27.449  0.00  0.00    +0.149 C 
BRANCH   5   6
ATOM      6  C   ILE A   6       7.252  19.194  28.244  0.00  0.00    +0.241 C 
ATOM      7  O   ILE A   6       6.662  19.257  29.333  0.00  0.00    -0.273 OA
ATOM      8  N   PHE A   7       8.111  20.057  27.757  0.00  0.00    -0.297 N 
ATOM      9  H   PHE A   7       8.593  19.778  26.879  0.00  0.00    +0.150 HD
BRANCH   8  10
ATOM     10  CA  PHE A   7       8.470  21.356  28.298  0.00  0.00    +0.153 C 
BRANCH  10  11
ATOM     11  C   PHE A   7       7.943  22.399  27.257  0.00  0.00    +0.241 C 
ATOM     12  N   GLY A   8       6.811  22.985  27.509  0.00  0.00    -0.295 N 
ATOM     13  H   GLY A   8       6.344  22.742  28.406  0.00  0.00    +0.150 HD
ATOM     14  O   PHE A   7       8.626  22.628  26.235  0.00  0.00    -0.273 OA
BRANCH  12  15
ATOM     15  CA  GLY A   8       6.135  23.950  26.653  0.00  0.00    +0.176 C 
BRANCH  15  16
ATOM     16  C   GLY A   8       6.549  25.380  26.703  0.00  0.00    +0.243 C 
ATOM     17  O   GLY A   8       7.549  25.672  27.372  0.00  0.00    -0.273 OA
ATOM     18  N   ARG A   9       5.854  26.287  26.055  0.00  0.00    -0.298 N 
ATOM     19  H   ARG A   9       4.992  25.982  25.558  0.00  0.00    +0.150 HD
BRANCH  18  20
ATOM     20  CA  ARG A   9       6.223  27.702  25.992  0.00  0.00    +0.137 C 
BRANCH  20  21
ATOM     21  C   ARG A   9       6.423  28.466  27.276  0.00  0.00    +0.227 C 
ATOM     22  O   ARG A   9       7.210  29.472  27.197  0.00  0.00    -0.286 OA
ENDBRANCH  20  21
BRANCH  20  23
ATOM     23  CB  ARG A   9       5.343  28.504  25.066  0.00  0.00    +0.031 C 
BRANCH  23  24
ATOM     24  CG  ARG A   9       5.311  27.995  23.648  0.00  0.00    +0.045 C 
BRANCH  24  25
ATOM     25  CD  ARG A   9       4.569  28.952  22.769  0.00  0.00    +0.174 C 
BRANCH  25  26
ATOM     26  NE  ARG A   9       3.139  28.903  23.094  0.00  0.00    -0.265 N 
ATOM     27  CZ  ARG A   9       2.632  29.893  23.838  0.00  0.00    +0.342 C 
ATOM     28  NH2 ARG A   9       3.387  30.888  24.278  0.00  0.00    -0.292 N 
ATOM     29 HH21 ARG A   9       2.966  31.644  24.855  0.00  0.00    +0.255 HD
ATOM     30 HH22 ARG A   9       4.401  30.913  24.047  0.00  0.00    +0.255 HD
ATOM     31  NH1 ARG A   9       1.333  29.874  24.103  0.00  0.00    -0.292 N 
ATOM     32 HH11 ARG A   9       0.909  30.629  24.679  0.00  0.00    +0.255 HD
ATOM     33 HH12 ARG A   9       0.738  29.104  23.735  0.00  0.00    +0.255 HD
ATOM     34  HE  ARG A   9       2.539  28.124  22.757  0.00  0.00    +0.259 HD
ENDBRANCH  25  26
ENDBRANCH  24  25
ENDBRANCH  23  24
ENDBRANCH  20  23
ENDBRANCH  18  20
ENDBRANCH  15  16
ENDBRANCH  12  15
ENDBRANCH  10  11
BRANCH  10  35
ATOM     35  CB  PHE A   7       9.920  21.597  28.626  0.00  0.00    +0.055 C 
BRANCH  35  36
ATOM     36  CG  PHE A   7      10.330  21.445  30.045  0.00  0.00    -0.020 A 
ATOM     37  CD2 PHE A   7       9.520  20.761  30.955  0.00  0.00    -0.004 A 
ATOM     38  CE2 PHE A   7       9.866  20.612  32.275  0.00  0.00    -0.000 A 
ATOM     39  CZ  PHE A   7      11.052  21.169  32.717  0.00  0.00    -0.000 A 
ATOM     40  CE1 PHE A   7      11.877  21.847  31.869  0.00  0.00    -0.000 A 
ATOM     41  CD1 PHE A   7      11.506  21.994  30.521  0.00  0.00    -0.004 A 
ENDBRANCH  35  36
ENDBRANCH  10  35
ENDBRANCH   8  10
ENDBRANCH   5   6
BRANCH   5  42
ATOM     42  CB  ILE A   6       5.775  17.961  26.495  0.00  0.00    +0.027 C 
ATOM     43  CG2 ILE A   6       5.757  16.631  25.659  0.00  0.00    +0.002 C 
BRANCH  42  44
ATOM     44  CG1 ILE A   6       4.435  17.982  27.217  0.00  0.00    +0.002 C 
ATOM     45  CD1 ILE A   6       3.149  17.809  26.335  0.00  0.00    +0.000 C 
ENDBRANCH  42  44
ENDBRANCH   5  42
ENDBRANCH   2   5
BRANCH   1  46
ATOM     46  CA  ASN A   5       7.819  14.778  29.472  0.00  0.00    +0.158 C 
BRANCH  46  48
ATOM     47  C   ILE A   4       6.712  13.235  27.986  0.00  0.00    +0.241 C 
ATOM     48  N   ASN A   5       7.838  13.549  28.640  0.00  0.00    -0.297 N 
ATOM     49  H   ASN A   5       8.690  12.957  28.568  0.00  0.00    +0.150 HD
ATOM     50  O   ILE A   4       5.625  13.821  28.011  0.00  0.00    -0.273 OA
BRANCH  47  51
ATOM     51  CA  ILE A   4       6.872  11.978  27.140  0.00  0.00    +0.149 C 
BRANCH  51  54
ATOM     52  C   PRO A   3       5.512   9.988  27.057  0.00  0.00    +0.242 C 
ATOM     53  O   PRO A   3       6.537   9.291  27.253  0.00  0.00    -0.273 OA
ATOM     54  N   ILE A   4       5.545  11.316  26.990  0.00  0.00    -0.297 N 
ATOM     55  H   ILE A   4       4.679  11.871  26.839  0.00  0.00    +0.150 HD
BRANCH  52  59
ATOM     56  C   THR A   2       3.078  10.634  28.634  0.00  0.00    +0.250 C 
ATOM     57  O   THR A   2       3.911  10.316  29.479  0.00  0.00    -0.273 OA
ATOM     58  N   PRO A   3       3.100  10.239  27.359  0.00  0.00    -0.249 N 
ATOM     59  CA  PRO A   3       4.139   9.350  26.857  0.00  0.00    +0.160 C 
ATOM     60  CB  PRO A   3       3.836   9.169  25.383  0.00  0.00    +0.057 C 
ATOM     61  CG  PRO A   3       2.591   9.926  25.068  0.00  0.00    -0.008 C 
ATOM     62  CD  PRO A   3       2.115  10.627  26.321  0.00  0.00    +0.063 C 
BRANCH  56  63
ATOM     63  CA  THR A   2       1.963  11.602  29.007  0.00  0.00    +0.176 C 
BRANCH  63  65
ATOM     64  C   ASP A   1       0.123  10.621  30.419  0.00  0.00    +0.239 C 
ATOM     65  N   THR A   2       1.305  11.168  30.219  0.00  0.00    -0.295 N 
ATOM     66  H   THR A   2       1.862  11.313  31.085  0.00  0.00    +0.150 HD
ATOM     67  O   ASP A   1      -0.658  10.311  29.508  0.00  0.00    -0.274 OA
BRANCH  64  68
ATOM     68  CA  ASP A   1      -0.165  10.355  31.887  0.00  0.00    +0.156 C 
BRANCH  68  69
ATOM     69  N   ASP A   1      -0.365  11.555  32.709  0.00  0.00    -0.238 NA
ATOM     70  H   ASP A   1      -1.349  11.874  32.813  0.00  0.00    +0.142 HD
ENDBRANCH  68  69
BRANCH  68  71
ATOM     71  CB  ASP A   1      -1.415   9.458  32.091  0.00  0.00    +0.140 C 
BRANCH  71  72
ATOM     72  CG  ASP A   1      -1.093   7.988  31.965  0.00  0.00    +0.367 C 
ATOM     73  OD2 ASP A   1      -0.806   7.345  33.014  0.00  0.00    -0.246 OA
ATOM     74  OD1 ASP A   1      -1.051   7.423  30.851  0.00  0.00    -0.246 OA
ENDBRANCH  71  72
ENDBRANCH  68  71
ENDBRANCH  64  68
ENDBRANCH  63  65
BRANCH  63  75
ATOM     75  CB  THR A   2       2.619  13.032  29.255  0.00  0.00    +0.137 C 
ATOM     76  CG2 THR A   2       3.669  13.021  30.382  0.00  0.00    +0.034 C 
BRANCH  75  77
ATOM     77  OG1 THR A   2       3.238  13.536  28.036  0.00  0.00    -0.382 OA
ATOM     78  HG1 THR A   2       3.944  12.907  27.741  0.00  0.00    +0.210 HD
ENDBRANCH  75  77
ENDBRANCH  63  75
ENDBRANCH  56  63
ENDBRANCH  52  59
ENDBRANCH  51  54
BRANCH  51  79
ATOM     79  CB  ILE A   4       7.448  12.292  25.723  0.00  0.00    +0.027 C 
ATOM     80  CG2 ILE A   4       8.848  12.967  25.643  0.00  0.00    +0.002 C 
BRANCH  79  81
ATOM     81  CG1 ILE A   4       7.519  10.962  24.896  0.00  0.00    +0.002 C 
ATOM     82  CD1 ILE A   4       8.301  11.283  23.568  0.00  0.00    +0.000 C 
ENDBRANCH  79  81
ENDBRANCH  51  79
ENDBRANCH  47  51
ENDBRANCH  46  48
BRANCH  46  83
ATOM     83  CB  ASN A   5       8.745  14.708  30.647  0.00  0.00    +0.114 C 
BRANCH  83  84
ATOM     84  CG  ASN A   5       8.992  13.391  31.331  0.00  0.00    +0.222 C 
ATOM     85  ND2 ASN A   5      10.216  13.052  31.738  0.00  0.00    -0.329 N 
ATOM     86 HD21 ASN A   5      10.380  12.122  32.174  0.00  0.00    +0.145 HD
ATOM     87 HD22 ASN A   5      11.006  13.718  31.620  0.00  0.00    +0.145 HD
ATOM     88  OD1 ASN A   5       8.026  12.627  31.454  0.00  0.00    -0.275 OA
ENDBRANCH  83  84
ENDBRANCH  46  83
ENDBRANCH   1  46
TORSDOF 33
REMARK  Name = ../refined-set-2016/1ivp/1ivp_pocket.pdb
REMARK  217 active torsions:
REMARK  status: ('A' for Active; 'I' for Inactive)
REMARK    1  A    between atoms: _1  and  _3
REMARK    2  A    between atoms: _3  and  _4
REMARK    3  A    between atoms: _3  and  _6
REMARK    4  A    between atoms: _6  and  _7
REMARK    5  A    between atoms: _7  and  _8
REMARK    6  A    between atoms: _8  and  _9
REMARK    7  A    between atoms: _18  and  _20
REMARK    8  A    between atoms: _20  and  _21
REMARK    9  A    between atoms: _20  and  _23
REMARK   10  A    between atoms: _23  and  _24
REMARK   11  A    between atoms: _27  and  _29
REMARK   12  A    between atoms: _29  and  _30
REMARK   13  A    between atoms: _29  and  _32
REMARK   14  A    between atoms: _32  and  _33
REMARK   15  A    between atoms: _36  and  _38
REMARK   16  A    between atoms: _38  and  _39
REMARK   17  A    between atoms: _38  and  _41
REMARK   18  A    between atoms: _41  and  _42
REMARK   19  A    between atoms: _45  and  _47
REMARK   20  A    between atoms: _47  and  _48
REMARK   21  A    between atoms: _47  and  _50
REMARK   22  A    between atoms: _50  and  _51
REMARK   23  A    between atoms: _54  and  _56
REMARK   24  A    between atoms: _56  and  _57
REMARK   25  A    between atoms: _59  and  _61
REMARK   26  A    between atoms: _61  and  _62
REMARK   27  A    between atoms: _65  and  _67
REMARK   28  A    between atoms: _67  and  _68
REMARK   29  A    between atoms: _67  and  _70
REMARK   30  A    between atoms: _70  and  _71
REMARK   31  A    between atoms: _74  and  _76
REMARK   32  A    between atoms: _76  and  _77
REMARK   33  A    between atoms: _76  and  _79
REMARK   34  A    between atoms: _79  and  _80
REMARK   35  A    between atoms: _83  and  _85
REMARK   36  A    between atoms: _85  and  _86
REMARK   37  A    between atoms: _85  and  _88
REMARK   38  A    between atoms: _88  and  _89
REMARK   39  A    between atoms: _91  and  _93
REMARK   40  A    between atoms: _93  and  _94
REMARK   41  A    between atoms: _93  and  _96
REMARK   42  A    between atoms: _96  and  _97
REMARK   43  A    between atoms: _100  and  _102
REMARK   44  A    between atoms: _102  and  _103
REMARK   45  A    between atoms: _102  and  _105
REMARK   46  A    between atoms: _105  and  _106
REMARK   47  A    between atoms: _109  and  _111
REMARK   48  A    between atoms: _111  and  _112
REMARK   49  A    between atoms: _111  and  _114
REMARK   50  A    between atoms: _117  and  _119
REMARK   51  A    between atoms: _119  and  _120
REMARK   52  A    between atoms: _122  and  _124
REMARK   53  A    between atoms: _124  and  _125
REMARK   54  A    between atoms: _129  and  _130
REMARK   55  A    between atoms: _129  and  _132
REMARK   56  A    between atoms: _132  and  _133
REMARK   57  A    between atoms: _136  and  _138
REMARK   58  A    between atoms: _138  and  _139
REMARK   59  A    between atoms: _141  and  _143
REMARK   60  A    between atoms: _143  and  _144
REMARK   61  A    between atoms: _146  and  _148
REMARK   62  A    between atoms: _148  and  _149
REMARK   63  A    between atoms: _148  and  _151
REMARK   64  A    between atoms: _151  and  _152
REMARK   65  A    between atoms: _158  and  _160
REMARK   66  A    between atoms: _160  and  _161
REMARK   67  A    between atoms: _160  and  _163
REMARK   68  A    between atoms: _163  and  _164
REMARK   69  A    between atoms: _167  and  _169
REMARK   70  A    between atoms: _169  and  _170
REMARK   71  A    between atoms: _169  and  _172
REMARK   72  A    between atoms: _172  and  _173
REMARK   73  A    between atoms: _173  and  _174
REMARK   74  A    between atoms: _176  and  _178
REMARK   75  A    between atoms: _178  and  _179
REMARK   76  A    between atoms: _178  and  _181
REMARK   77  A    between atoms: _181  and  _182
REMARK   78  A    between atoms: _185  and  _187
REMARK   79  A    between atoms: _187  and  _188
REMARK   80  A    between atoms: _187  and  _190
REMARK   81  A    between atoms: _190  and  _191
REMARK   82  A    between atoms: _195  and  _196
REMARK   83  A    between atoms: _201  and  _203
REMARK   84  A    between atoms: _203  and  _204
REMARK   85  A    between atoms: _203  and  _206
REMARK   86  A    between atoms: _206  and  _207
REMARK   87  A    between atoms: _210  and  _212
REMARK   88  A    between atoms: _212  and  _213
REMARK   89  A    between atoms: _212  and  _215
REMARK   90  A    between atoms: _215  and  _216
REMARK   91  A    between atoms: _221  and  _223
REMARK   92  A    between atoms: _223  and  _224
REMARK   93  A    between atoms: _223  and  _226
REMARK   94  A    between atoms: _226  and  _227
REMARK   95  A    between atoms: _230  and  _232
REMARK   96  A    between atoms: _232  and  _233
REMARK   97  A    between atoms: _232  and  _235
REMARK   98  A    between atoms: _235  and  _236
REMARK   99  A    between atoms: _242  and  _244
REMARK  100  A    between atoms: _244  and  _245
REMARK  101  A    between atoms: _247  and  _249
REMARK  102  A    between atoms: _249  and  _250
REMARK  103  A    between atoms: _249  and  _252
REMARK  104  A    between atoms: _252  and  _253
REMARK  105  A    between atoms: _253  and  _254
REMARK  106  A    between atoms: _254  and  _255
REMARK  107  A    between atoms: _264  and  _266
REMARK  108  A    between atoms: _266  and  _267
REMARK  109  A    between atoms: _266  and  _269
REMARK  110  A    between atoms: _269  and  _270
REMARK  111  A    between atoms: _270  and  _271
REMARK  112  A    between atoms: _271  and  _272
REMARK  113  A    between atoms: _281  and  _283
REMARK  114  A    between atoms: _283  and  _284
REMARK  115  A    between atoms: _283  and  _286
REMARK  116  A    between atoms: _286  and  _287
REMARK  117  A    between atoms: _290  and  _292
REMARK  118  A    between atoms: _292  and  _293
REMARK  119  A    between atoms: _292  and  _295
REMARK  120  A    between atoms: _295  and  _296
REMARK  121  A    between atoms: _299  and  _301
REMARK  122  A    between atoms: _301  and  _302
REMARK  123  A    between atoms: _301  and  _304
REMARK  124  A    between atoms: _304  and  _305
REMARK  125  A    between atoms: _308  and  _310
REMARK  126  A    between atoms: _310  and  _311
REMARK  127  A    between atoms: _310  and  _313
REMARK  128  A    between atoms: _313  and  _314
REMARK  129  A    between atoms: _317  and  _319
REMARK  130  A    between atoms: _319  and  _320
REMARK  131  A    between atoms: _322  and  _324
REMARK  132  A    between atoms: _324  and  _325
REMARK  133  A    between atoms: _328  and  _330
REMARK  134  A    between atoms: _330  and  _331
REMARK  135  A    between atoms: _330  and  _333
REMARK  136  A    between atoms: _333  and  _334
REMARK  137  A    between atoms: _337  and  _339
REMARK  138  A    between atoms: _339  and  _340
REMARK  139  A    between atoms: _339  and  _342
REMARK  140  A    between atoms: _342  and  _343
REMARK  141  A    between atoms: _346  and  _348
REMARK  142  A    between atoms: _348  and  _349
REMARK  143  A    between atoms: _348  and  _351
REMARK  144  A    between atoms: _351  and  _352
REMARK  145  A    between atoms: _354  and  _356
REMARK  146  A    between atoms: _356  and  _357
REMARK  147  A    between atoms: _356  and  _359
REMARK  148  A    between atoms: _359  and  _360
REMARK  149  A    between atoms: _363  and  _365
REMARK  150  A    between atoms: _365  and  _366
REMARK  151  A    between atoms: _365  and  _368
REMARK  152  A    between atoms: _368  and  _369
REMARK  153  A    between atoms: _372  and  _374
REMARK  154  A    between atoms: _374  and  _375
REMARK  155  A    between atoms: _374  and  _377
REMARK  156  A    between atoms: _380  and  _382
REMARK  157  A    between atoms: _382  and  _383
REMARK  158  A    between atoms: _385  and  _387
REMARK  159  A    between atoms: _387  and  _388
REMARK  160  A    between atoms: _390  and  _392
REMARK  161  A    between atoms: _392  and  _393
REMARK  162  A    between atoms: _392  and  _395
REMARK  163  A    between atoms: _395  and  _396
REMARK  164  A    between atoms: _399  and  _401
REMARK  165  A    between atoms: _401  and  _402
REMARK  166  A    between atoms: _404  and  _406
REMARK  167  A    between atoms: _406  and  _407
REMARK  168  A    between atoms: _409  and  _411
REMARK  169  A    between atoms: _411  and  _412
REMARK  170  A    between atoms: _411  and  _414
REMARK  171  A    between atoms: _414  and  _415
REMARK  172  A    between atoms: _421  and  _423
REMARK  173  A    between atoms: _423  and  _424
REMARK  174  A    between atoms: _423  and  _426
REMARK  175  A    between atoms: _426  and  _427
REMARK  176  A    between atoms: _430  and  _432
REMARK  177  A    between atoms: _432  and  _433
REMARK  178  A    between atoms: _432  and  _435
REMARK  179  A    between atoms: _435  and  _436
REMARK  180  A    between atoms: _439  and  _441
REMARK  181  A    between atoms: _441  and  _442
REMARK  182  A    between atoms: _441  and  _444
REMARK  183  A    between atoms: _444  and  _445
REMARK  184  A    between atoms: _445  and  _446
REMARK  185  A    between atoms: _448  and  _450
REMARK  186  A    between atoms: _450  and  _451
REMARK  187  A    between atoms: _450  and  _453
REMARK  188  A    between atoms: _453  and  _454
REMARK  189  A    between atoms: _458  and  _459
REMARK  190  A    between atoms: _464  and  _466
REMARK  191  A    between atoms: _466  and  _467
REMARK  192  A    between atoms: _466  and  _469
REMARK  193  A    between atoms: _469  and  _470
REMARK  194  A    between atoms: _473  and  _475
REMARK  195  A    between atoms: _475  and  _476
REMARK  196  A    between atoms: _475  and  _478
REMARK  197  A    between atoms: _478  and  _479
REMARK  198  A    between atoms: _484  and  _486
REMARK  199  A    between atoms: _486  and  _487
REMARK  200  A    between atoms: _486  and  _489
REMARK  201  A    between atoms: _489  and  _490
REMARK  202  A    between atoms: _493  and  _495
REMARK  203  A    between atoms: _495  and  _496
REMARK  204  A    between atoms: _495  and  _498
REMARK  205  A    between atoms: _498  and  _499
REMARK  206  A    between atoms: _505  and  _507
REMARK  207  A    between atoms: _507  and  _508
REMARK  208  A    between atoms: _510  and  _512
REMARK  209  A    between atoms: _512  and  _513
REMARK  210  A    between atoms: _512  and  _515
REMARK  211  A    between atoms: _515  and  _516
REMARK  212  A    between atoms: _516  and  _517
REMARK  213  A    between atoms: _517  and  _518
REMARK  214  A    between atoms: _527  and  _529
REMARK  215  A    between atoms: _529  and  _530
REMARK  216  A    between atoms: _529  and  _532
REMARK  217  A    between atoms: _532  and  _533
REMARK                            x       y       z     vdW  Elec       q    Type
REMARK                         _______ _______ _______ _____ _____    ______ ____
ROOT
ATOM      1  NE  ARG A   1      -1.984  28.141  21.383  0.00  0.00    -0.265 N 
ATOM      2  HE  ARG A   1      -1.342  27.798  22.126  0.00  0.00    +0.259 HD
ATOM      3  CZ  ARG A   1      -3.286  27.934  21.493  0.00  0.00    +0.342 C 
ATOM      4  NH2 ARG A   1      -3.769  27.322  22.568  0.00  0.00    -0.292 N 
ATOM      5 HH21 ARG A   1      -3.124  27.007  23.321  0.00  0.00    +0.255 HD
ATOM      6 HH22 ARG A   1      -4.792  27.158  22.657  0.00  0.00    +0.255 HD
ATOM      7  NH1 ARG A   1      -4.122  28.335  20.548  0.00  0.00    -0.292 N 
ATOM      8 HH11 ARG A   1      -5.143  28.164  20.650  0.00  0.00    +0.255 HD
ATOM      9 HH12 ARG A   1      -3.758  28.821  19.704  0.00  0.00    +0.255 HD
ENDROOT
BRANCH   1  10
ATOM     10  CD  ARG A   1      -1.439  28.853  20.217  0.00  0.00    +0.174 C 
BRANCH  10  11
ATOM     11  CG  ARG A   1      -0.083  29.303  20.614  0.00  0.00    +0.045 C 
BRANCH  11  12
ATOM     12  CB  ARG A   1       0.590  30.075  19.503  0.00  0.00    +0.029 C 
BRANCH  12  13
ATOM     13  CA  ARG A   1       1.977  30.607  19.871  0.00  0.00    +0.133 C 
BRANCH  13  14
ATOM     14  N   ARG A   1       1.865  31.818  20.694  0.00  0.00    -0.239 NA
ATOM     15  H   ARG A   1       0.934  32.134  21.033  0.00  0.00    +0.142 HD
ENDBRANCH  13  14
BRANCH  13  16
ATOM     16  C   ARG A   1       2.645  31.022  18.580  0.00  0.00    +0.224 C 
ATOM     17  O   ARG A   1       2.229  32.035  18.001  0.00  0.00    -0.287 OA
ENDBRANCH  13  16
ENDBRANCH  12  13
ENDBRANCH  11  12
ENDBRANCH  10  11
ENDBRANCH   1  10
TORSDOF 6
REMARK  Name = ../refined-set-2016/1ivp/1ivp_pocket.pdb
REMARK  217 active torsions:
REMARK  status: ('A' for Active; 'I' for Inactive)
REMARK    1  A    between atoms: _1  and  _3
REMARK    2  A    between atoms: _3  and  _4
REMARK    3  A    between atoms: _3  and  _6
REMARK    4  A    between atoms: _6  and  _7
REMARK    5  A    between atoms: _7  and  _8
REMARK    6  A    between atoms: _8  and  _9
REMARK    7  A    between atoms: _18  and  _20
REMARK    8  A    between atoms: _20  and  _21
REMARK    9  A    between atoms: _20  and  _23
REMARK   10  A    between atoms: _23  and  _24
REMARK   11  A    between atoms: _27  and  _29
REMARK   12  A    between atoms: _29  and  _30
REMARK   13  A    between atoms: _29  and  _32
REMARK   14  A    between atoms: _32  and  _33
REMARK   15  A    between atoms: _36  and  _38
REMARK   16  A    between atoms: _38  and  _39
REMARK   17  A    between atoms: _38  and  _41
REMARK   18  A    between atoms: _41  and  _42
REMARK   19  A    between atoms: _45  and  _47
REMARK   20  A    between atoms: _47  and  _48
REMARK   21  A    between atoms: _47  and  _50
REMARK   22  A    between atoms: _50  and  _51
REMARK   23  A    between atoms: _54  and  _56
REMARK   24  A    between atoms: _56  and  _57
REMARK   25  A    between atoms: _59  and  _61
REMARK   26  A    between atoms: _61  and  _62
REMARK   27  A    between atoms: _65  and  _67
REMARK   28  A    between atoms: _67  and  _68
REMARK   29  A    between atoms: _67  and  _70
REMARK   30  A    between atoms: _70  and  _71
REMARK   31  A    between atoms: _74  and  _76
REMARK   32  A    between atoms: _76  and  _77
REMARK   33  A    between atoms: _76  and  _79
REMARK   34  A    between atoms: _79  and  _80
REMARK   35  A    between atoms: _83  and  _85
REMARK   36  A    between atoms: _85  and  _86
REMARK   37  A    between atoms: _85  and  _88
REMARK   38  A    between atoms: _88  and  _89
REMARK   39  A    between atoms: _91  and  _93
REMARK   40  A    between atoms: _93  and  _94
REMARK   41  A    between atoms: _93  and  _96
REMARK   42  A    between atoms: _96  and  _97
REMARK   43  A    between atoms: _100  and  _102
REMARK   44  A    between atoms: _102  and  _103
REMARK   45  A    between atoms: _102  and  _105
REMARK   46  A    between atoms: _105  and  _106
REMARK   47  A    between atoms: _109  and  _111
REMARK   48  A    between atoms: _111  and  _112
REMARK   49  A    between atoms: _111  and  _114
REMARK   50  A    between atoms: _117  and  _119
REMARK   51  A    between atoms: _119  and  _120
REMARK   52  A    between atoms: _122  and  _124
REMARK   53  A    between atoms: _124  and  _125
REMARK   54  A    between atoms: _129  and  _130
REMARK   55  A    between atoms: _129  and  _132
REMARK   56  A    between atoms: _132  and  _133
REMARK   57  A    between atoms: _136  and  _138
REMARK   58  A    between atoms: _138  and  _139
REMARK   59  A    between atoms: _141  and  _143
REMARK   60  A    between atoms: _143  and  _144
REMARK   61  A    between atoms: _146  and  _148
REMARK   62  A    between atoms: _148  and  _149
REMARK   63  A    between atoms: _148  and  _151
REMARK   64  A    between atoms: _151  and  _152
REMARK   65  A    between atoms: _158  and  _160
REMARK   66  A    between atoms: _160  and  _161
REMARK   67  A    between atoms: _160  and  _163
REMARK   68  A    between atoms: _163  and  _164
REMARK   69  A    between atoms: _167  and  _169
REMARK   70  A    between atoms: _169  and  _170
REMARK   71  A    between atoms: _169  and  _172
REMARK   72  A    between atoms: _172  and  _173
REMARK   73  A    between atoms: _173  and  _174
REMARK   74  A    between atoms: _176  and  _178
REMARK   75  A    between atoms: _178  and  _179
REMARK   76  A    between atoms: _178  and  _181
REMARK   77  A    between atoms: _181  and  _182
REMARK   78  A    between atoms: _185  and  _187
REMARK   79  A    between atoms: _187  and  _188
REMARK   80  A    between atoms: _187  and  _190
REMARK   81  A    between atoms: _190  and  _191
REMARK   82  A    between atoms: _195  and  _196
REMARK   83  A    between atoms: _201  and  _203
REMARK   84  A    between atoms: _203  and  _204
REMARK   85  A    between atoms: _203  and  _206
REMARK   86  A    between atoms: _206  and  _207
REMARK   87  A    between atoms: _210  and  _212
REMARK   88  A    between atoms: _212  and  _213
REMARK   89  A    between atoms: _212  and  _215
REMARK   90  A    between atoms: _215  and  _216
REMARK   91  A    between atoms: _221  and  _223
REMARK   92  A    between atoms: _223  and  _224
REMARK   93  A    between atoms: _223  and  _226
REMARK   94  A    between atoms: _226  and  _227
REMARK   95  A    between atoms: _230  and  _232
REMARK   96  A    between atoms: _232  and  _233
REMARK   97  A    between atoms: _232  and  _235
REMARK   98  A    between atoms: _235  and  _236
REMARK   99  A    between atoms: _242  and  _244
REMARK  100  A    between atoms: _244  and  _245
REMARK  101  A    between atoms: _247  and  _249
REMARK  102  A    between atoms: _249  and  _250
REMARK  103  A    between atoms: _249  and  _252
REMARK  104  A    between atoms: _252  and  _253
REMARK  105  A    between atoms: _253  and  _254
REMARK  106  A    between atoms: _254  and  _255
REMARK  107  A    between atoms: _264  and  _266
REMARK  108  A    between atoms: _266  and  _267
REMARK  109  A    between atoms: _266  and  _269
REMARK  110  A    between atoms: _269  and  _270
REMARK  111  A    between atoms: _270  and  _271
REMARK  112  A    between atoms: _271  and  _272
REMARK  113  A    between atoms: _281  and  _283
REMARK  114  A    between atoms: _283  and  _284
REMARK  115  A    between atoms: _283  and  _286
REMARK  116  A    between atoms: _286  and  _287
REMARK  117  A    between atoms: _290  and  _292
REMARK  118  A    between atoms: _292  and  _293
REMARK  119  A    between atoms: _292  and  _295
REMARK  120  A    between atoms: _295  and  _296
REMARK  121  A    between atoms: _299  and  _301
REMARK  122  A    between atoms: _301  and  _302
REMARK  123  A    between atoms: _301  and  _304
REMARK  124  A    between atoms: _304  and  _305
REMARK  125  A    between atoms: _308  and  _310
REMARK  126  A    between atoms: _310  and  _311
REMARK  127  A    between atoms: _310  and  _313
REMARK  128  A    between atoms: _313  and  _314
REMARK  129  A    between atoms: _317  and  _319
REMARK  130  A    between atoms: _319  and  _320
REMARK  131  A    between atoms: _322  and  _324
REMARK  132  A    between atoms: _324  and  _325
REMARK  133  A    between atoms: _328  and  _330
REMARK  134  A    between atoms: _330  and  _331
REMARK  135  A    between atoms: _330  and  _333
REMARK  136  A    between atoms: _333  and  _334
REMARK  137  A    between atoms: _337  and  _339
REMARK  138  A    between atoms: _339  and  _340
REMARK  139  A    between atoms: _339  and  _342
REMARK  140  A    between atoms: _342  and  _343
REMARK  141  A    between atoms: _346  and  _348
REMARK  142  A    between atoms: _348  and  _349
REMARK  143  A    between atoms: _348  and  _351
REMARK  144  A    between atoms: _351  and  _352
REMARK  145  A    between atoms: _354  and  _356
REMARK  146  A    between atoms: _356  and  _357
REMARK  147  A    between atoms: _356  and  _359
REMARK  148  A    between atoms: _359  and  _360
REMARK  149  A    between atoms: _363  and  _365
REMARK  150  A    between atoms: _365  and  _366
REMARK  151  A    between atoms: _365  and  _368
REMARK  152  A    between atoms: _368  and  _369
REMARK  153  A    between atoms: _372  and  _374
REMARK  154  A    between atoms: _374  and  _375
REMARK  155  A    between atoms: _374  and  _377
REMARK  156  A    between atoms: _380  and  _382
REMARK  157  A    between atoms: _382  and  _383
REMARK  158  A    between atoms: _385  and  _387
REMARK  159  A    between atoms: _387  and  _388
REMARK  160  A    between atoms: _390  and  _392
REMARK  161  A    between atoms: _392  and  _393
REMARK  162  A    between atoms: _392  and  _395
REMARK  163  A    between atoms: _395  and  _396
REMARK  164  A    between atoms: _399  and  _401
REMARK  165  A    between atoms: _401  and  _402
REMARK  166  A    between atoms: _404  and  _406
REMARK  167  A    between atoms: _406  and  _407
REMARK  168  A    between atoms: _409  and  _411
REMARK  169  A    between atoms: _411  and  _412
REMARK  170  A    between atoms: _411  and  _414
REMARK  171  A    between atoms: _414  and  _415
REMARK  172  A    between atoms: _421  and  _423
REMARK  173  A    between atoms: _423  and  _424
REMARK  174  A    between atoms: _423  and  _426
REMARK  175  A    between atoms: _426  and  _427
REMARK  176  A    between atoms: _430  and  _432
REMARK  177  A    between atoms: _432  and  _433
REMARK  178  A    between atoms: _432  and  _435
REMARK  179  A    between atoms: _435  and  _436
REMARK  180  A    between atoms: _439  and  _441
REMARK  181  A    between atoms: _441  and  _442
REMARK  182  A    between atoms: _441  and  _444
REMARK  183  A    between atoms: _444  and  _445
REMARK  184  A    between atoms: _445  and  _446
REMARK  185  A    between atoms: _448  and  _450
REMARK  186  A    between atoms: _450  and  _451
REMARK  187  A    between atoms: _450  and  _453
REMARK  188  A    between atoms: _453  and  _454
REMARK  189  A    between atoms: _458  and  _459
REMARK  190  A    between atoms: _464  and  _466
REMARK  191  A    between atoms: _466  and  _467
REMARK  192  A    between atoms: _466  and  _469
REMARK  193  A    between atoms: _469  and  _470
REMARK  194  A    between atoms: _473  and  _475
REMARK  195  A    between atoms: _475  and  _476
REMARK  196  A    between atoms: _475  and  _478
REMARK  197  A    between atoms: _478  and  _479
REMARK  198  A    between atoms: _484  and  _486
REMARK  199  A    between atoms: _486  and  _487
REMARK  200  A    between atoms: _486  and  _489
REMARK  201  A    between atoms: _489  and  _490
REMARK  202  A    between atoms: _493  and  _495
REMARK  203  A    between atoms: _495  and  _496
REMARK  204  A    between atoms: _495  and  _498
REMARK  205  A    between atoms: _498  and  _499
REMARK  206  A    between atoms: _505  and  _507
REMARK  207  A    between atoms: _507  and  _508
REMARK  208  A    between atoms: _510  and  _512
REMARK  209  A    between atoms: _512  and  _513
REMARK  210  A    between atoms: _512  and  _515
REMARK  211  A    between atoms: _515  and  _516
REMARK  212  A    between atoms: _516  and  _517
REMARK  213  A    between atoms: _517  and  _518
REMARK  214  A    between atoms: _527  and  _529
REMARK  215  A    between atoms: _529  and  _530
REMARK  216  A    between atoms: _529  and  _532
REMARK  217  A    between atoms: _532  and  _533
REMARK                            x       y       z     vdW  Elec       q    Type
REMARK                         _______ _______ _______ _____ _____    ______ ____
ROOT
ATOM      1  C   GLY A   5       6.373  17.623  18.469  0.00  0.00    +0.243 C 
ATOM      2  O   GLY A   5       5.889  16.624  19.002  0.00  0.00    -0.273 OA
ATOM      3  N   ALA A   6       6.265  17.790  17.179  0.00  0.00    -0.297 N 
ATOM      4  H   ALA A   6       6.729  18.638  16.795  0.00  0.00    +0.150 HD
ENDROOT
BRANCH   3   5
ATOM      5  CA  ALA A   6       5.587  16.955  16.212  0.00  0.00    +0.149 C 
ATOM      6  CB  ALA A   6       4.648  17.846  15.348  0.00  0.00    +0.031 C 
BRANCH   5   7
ATOM      7  C   ALA A   6       6.592  16.339  15.241  0.00  0.00    +0.241 C 
ATOM      8  N   ASP A   7       6.511  15.083  14.979  0.00  0.00    -0.297 N 
ATOM      9  H   ASP A   7       5.758  14.534  15.441  0.00  0.00    +0.150 HD
ATOM     10  O   ALA A   6       7.400  17.114  14.782  0.00  0.00    -0.273 OA
BRANCH   8  11
ATOM     11  CA  ASP A   7       7.413  14.384  14.072  0.00  0.00    +0.160 C 
BRANCH  11  12
ATOM     12  C   ASP A   7       7.060  14.710  12.606  0.00  0.00    +0.241 C 
ATOM     13  N   ASP A   8       5.805  14.897  12.354  0.00  0.00    -0.297 N 
ATOM     14  H   ASP A   8       5.232  14.837  13.220  0.00  0.00    +0.150 HD
ATOM     15  O   ASP A   7       7.937  14.773  11.741  0.00  0.00    -0.273 OA
BRANCH  13  16
ATOM     16  CA  ASP A   8       4.993  15.163  11.212  0.00  0.00    +0.160 C 
BRANCH  16  17
ATOM     17  C   ASP A   8       4.157  16.451  11.273  0.00  0.00    +0.241 C 
ATOM     18  O   ASP A   8       3.997  17.008  12.375  0.00  0.00    -0.273 OA
ATOM     19  N   SER A   9       3.647  16.752  10.063  0.00  0.00    -0.295 N 
ATOM     20  H   SER A   9       3.864  16.143   9.248  0.00  0.00    +0.150 HD
BRANCH  19  21
ATOM     21  CA  SER A   9       2.783  17.936   9.879  0.00  0.00    +0.178 C 
BRANCH  21  22
ATOM     22  C   SER A   9       1.336  17.513   9.576  0.00  0.00    +0.243 C 
ATOM     23  N   ILE A  10       0.327  18.085  10.216  0.00  0.00    -0.298 N 
ATOM     24  H   ILE A  10       0.538  18.815  10.926  0.00  0.00    +0.150 HD
ATOM     25  O   SER A   9       1.251  16.615   8.706  0.00  0.00    -0.273 OA
BRANCH  23  26
ATOM     26  CA  ILE A  10      -1.067  17.735   9.969  0.00  0.00    +0.137 C 
BRANCH  26  27
ATOM     27  C   ILE A  10      -2.005  18.928   9.758  0.00  0.00    +0.227 C 
ATOM     28  O   ILE A  10      -1.948  19.940  10.503  0.00  0.00    -0.286 OA
ENDBRANCH  26  27
BRANCH  26  29
ATOM     29  CB  ILE A  10      -1.584  16.830  11.151  0.00  0.00    +0.026 C 
ATOM     30  CG2 ILE A  10      -2.866  16.049  10.751  0.00  0.00    +0.002 C 
BRANCH  29  31
ATOM     31  CG1 ILE A  10      -0.409  15.880  11.529  0.00  0.00    +0.002 C 
ATOM     32  CD1 ILE A  10      -0.852  14.656  12.364  0.00  0.00    +0.000 C 
ENDBRANCH  29  31
ENDBRANCH  26  29
ENDBRANCH  23  26
ENDBRANCH  21  22
BRANCH  21  33
ATOM     33  CB  SER A   9       3.304  18.784   8.759  0.00  0.00    +0.166 C 
BRANCH  33  34
ATOM     34  OG  SER A   9       4.677  19.111   8.873  0.00  0.00    -0.380 OA
ATOM     35  H   SER A   9       5.213  18.279   8.884  0.00  0.00    +0.211 HD
ENDBRANCH  33  34
ENDBRANCH  21  33
ENDBRANCH  19  21
ENDBRANCH  16  17
BRANCH  16  36
ATOM     36  CB  ASP A   8       3.921  14.017  11.125  0.00  0.00    +0.143 C 
BRANCH  36  37
ATOM     37  CG  ASP A   8       4.693  12.700  11.131  0.00  0.00    +0.367 C 
ATOM     38  OD2 ASP A   8       4.276  11.613  11.538  0.00  0.00    -0.246 OA
ATOM     39  OD1 ASP A   8       5.859  12.849  10.717  0.00  0.00    -0.246 OA
ENDBRANCH  36  37
ENDBRANCH  16  36
ENDBRANCH  13  16
ENDBRANCH  11  12
BRANCH  11  40
ATOM     40  CB  ASP A   7       7.403  12.893  14.357  0.00  0.00    +0.143 C 
BRANCH  40  41
ATOM     41  CG  ASP A   7       7.899  12.343  15.667  0.00  0.00    +0.367 C 
ATOM     42  OD2 ASP A   7       8.855  12.686  16.381  0.00  0.00    -0.246 OA
ATOM     43  OD1 ASP A   7       7.237  11.354  16.030  0.00  0.00    -0.246 OA
ENDBRANCH  40  41
ENDBRANCH  11  40
ENDBRANCH   8  11
ENDBRANCH   5   7
ENDBRANCH   3   5
BRANCH   1  44
ATOM     44  CA  GLY A   5       7.140  18.645  19.296  0.00  0.00    +0.176 C 
BRANCH  44  46
ATOM     45  C   THR A   4       8.893  19.950  18.167  0.00  0.00    +0.243 C 
ATOM     46  N   GLY A   5       7.670  19.796  18.580  0.00  0.00    -0.295 N 
ATOM     47  H   GLY A   5       7.006  20.571  18.379  0.00  0.00    +0.150 HD
ATOM     48  O   THR A   4       9.755  19.060  18.310  0.00  0.00    -0.273 OA
BRANCH  45  49
ATOM     49  CA  THR A   4       9.267  21.235  17.476  0.00  0.00    +0.176 C 
BRANCH  49  51
ATOM     50  C   ASP A   3       7.139  21.834  16.472  0.00  0.00    +0.241 C 
ATOM     51  N   THR A   4       8.109  22.124  17.345  0.00  0.00    -0.295 N 
ATOM     52  H   THR A   4       8.042  22.980  17.931  0.00  0.00    +0.150 HD
ATOM     53  O   ASP A   3       7.071  20.800  15.806  0.00  0.00    -0.273 OA
BRANCH  50  54
ATOM     54  CA  ASP A   3       5.983  22.797  16.395  0.00  0.00    +0.160 C 
BRANCH  54  57
ATOM     55  C   LEU A   2       5.775  24.976  15.355  0.00  0.00    +0.241 C 
ATOM     56  O   LEU A   2       5.841  25.559  16.451  0.00  0.00    -0.273 OA
ATOM     57  N   ASP A   3       5.872  23.662  15.211  0.00  0.00    -0.297 N 
ATOM     58  H   ASP A   3       5.870  23.242  14.259  0.00  0.00    +0.150 HD
BRANCH  55  59
ATOM     59  CA  LEU A   2       5.523  25.818  14.080  0.00  0.00    +0.149 C 
BRANCH  59  61
ATOM     60  C   LEU A   1       3.069  25.601  13.978  0.00  0.00    +0.238 C 
ATOM     61  N   LEU A   2       4.121  26.302  14.210  0.00  0.00    -0.297 N 
ATOM     62  H   LEU A   2       3.982  27.287  14.513  0.00  0.00    +0.150 HD
ATOM     63  O   LEU A   1       3.096  24.400  13.585  0.00  0.00    -0.274 OA
BRANCH  60  64
ATOM     64  CA  LEU A   1       1.666  26.203  14.224  0.00  0.00    +0.145 C 
BRANCH  64  65
ATOM     65  N   LEU A   1       0.865  26.086  12.971  0.00  0.00    -0.238 NA
ATOM     66  H   LEU A   1       0.331  25.213  12.783  0.00  0.00    +0.142 HD
ENDBRANCH  64  65
BRANCH  64  67
ATOM     67  CB  LEU A   1       0.892  25.410  15.301  0.00  0.00    +0.026 C 
BRANCH  67  68
ATOM     68  CG  LEU A   1       1.454  25.216  16.697  0.00  0.00    +0.002 C 
ATOM     69  CD2 LEU A   1       1.536  26.452  17.574  0.00  0.00    +0.000 C 
ATOM     70  CD1 LEU A   1       0.664  24.189  17.504  0.00  0.00    +0.000 C 
ENDBRANCH  67  68
ENDBRANCH  64  67
ENDBRANCH  60  64
ENDBRANCH  59  61
BRANCH  59  71
ATOM     71  CB  LEU A   2       6.473  26.994  13.907  0.00  0.00    +0.029 C 
BRANCH  71  72
ATOM     72  CG  LEU A   2       6.115  28.056  12.858  0.00  0.00    +0.002 C 
ATOM     73  CD2 LEU A   2       7.140  29.198  13.006  0.00  0.00    +0.000 C 
ATOM     74  CD1 LEU A   2       6.296  27.423  11.483  0.00  0.00    +0.000 C 
ENDBRANCH  71  72
ENDBRANCH  59  71
ENDBRANCH  55  59
ENDBRANCH  54  57
BRANCH  54  75
ATOM     75  CB  ASP A   3       4.612  22.119  16.428  0.00  0.00    +0.143 C 
BRANCH  75  76
ATOM     76  CG  ASP A   3       4.055  21.147  17.361  0.00  0.00    +0.367 C 
ATOM     77  OD2 ASP A   3       4.653  20.824  18.383  0.00  0.00    -0.246 OA
ATOM     78  OD1 ASP A   3       2.964  20.554  17.251  0.00  0.00    -0.246 OA
ENDBRANCH  75  76
ENDBRANCH  54  75
ENDBRANCH  50  54
ENDBRANCH  49  51
BRANCH  49  79
ATOM     79  CB  THR A   4      10.469  22.022  18.106  0.00  0.00    +0.137 C 
ATOM     80  CG2 THR A   4      10.949  23.259  17.331  0.00  0.00    +0.034 C 
BRANCH  79  81
ATOM     81  OG1 THR A   4      10.020  22.539  19.423  0.00  0.00    -0.382 OA
ATOM     82  HG1 THR A   4       9.760  21.780  20.003  0.00  0.00    +0.210 HD
ENDBRANCH  79  81
ENDBRANCH  49  79
ENDBRANCH  45  49
ENDBRANCH  44  46
ENDBRANCH   1  44
TORSDOF 36
REMARK  Name = ../refined-set-2016/1ivp/1ivp_pocket.pdb
REMARK  217 active torsions:
REMARK  status: ('A' for Active; 'I' for Inactive)
REMARK    1  A    between atoms: _1  and  _3
REMARK    2  A    between atoms: _3  and  _4
REMARK    3  A    between atoms: _3  and  _6
REMARK    4  A    between atoms: _6  and  _7
REMARK    5  A    between atoms: _7  and  _8
REMARK    6  A    between atoms: _8  and  _9
REMARK    7  A    between atoms: _18  and  _20
REMARK    8  A    between atoms: _20  and  _21
REMARK    9  A    between atoms: _20  and  _23
REMARK   10  A    between atoms: _23  and  _24
REMARK   11  A    between atoms: _27  and  _29
REMARK   12  A    between atoms: _29  and  _30
REMARK   13  A    between atoms: _29  and  _32
REMARK   14  A    between atoms: _32  and  _33
REMARK   15  A    between atoms: _36  and  _38
REMARK   16  A    between atoms: _38  and  _39
REMARK   17  A    between atoms: _38  and  _41
REMARK   18  A    between atoms: _41  and  _42
REMARK   19  A    between atoms: _45  and  _47
REMARK   20  A    between atoms: _47  and  _48
REMARK   21  A    between atoms: _47  and  _50
REMARK   22  A    between atoms: _50  and  _51
REMARK   23  A    between atoms: _54  and  _56
REMARK   24  A    between atoms: _56  and  _57
REMARK   25  A    between atoms: _59  and  _61
REMARK   26  A    between atoms: _61  and  _62
REMARK   27  A    between atoms: _65  and  _67
REMARK   28  A    between atoms: _67  and  _68
REMARK   29  A    between atoms: _67  and  _70
REMARK   30  A    between atoms: _70  and  _71
REMARK   31  A    between atoms: _74  and  _76
REMARK   32  A    between atoms: _76  and  _77
REMARK   33  A    between atoms: _76  and  _79
REMARK   34  A    between atoms: _79  and  _80
REMARK   35  A    between atoms: _83  and  _85
REMARK   36  A    between atoms: _85  and  _86
REMARK   37  A    between atoms: _85  and  _88
REMARK   38  A    between atoms: _88  and  _89
REMARK   39  A    between atoms: _91  and  _93
REMARK   40  A    between atoms: _93  and  _94
REMARK   41  A    between atoms: _93  and  _96
REMARK   42  A    between atoms: _96  and  _97
REMARK   43  A    between atoms: _100  and  _102
REMARK   44  A    between atoms: _102  and  _103
REMARK   45  A    between atoms: _102  and  _105
REMARK   46  A    between atoms: _105  and  _106
REMARK   47  A    between atoms: _109  and  _111
REMARK   48  A    between atoms: _111  and  _112
REMARK   49  A    between atoms: _111  and  _114
REMARK   50  A    between atoms: _117  and  _119
REMARK   51  A    between atoms: _119  and  _120
REMARK   52  A    between atoms: _122  and  _124
REMARK   53  A    between atoms: _124  and  _125
REMARK   54  A    between atoms: _129  and  _130
REMARK   55  A    between atoms: _129  and  _132
REMARK   56  A    between atoms: _132  and  _133
REMARK   57  A    between atoms: _136  and  _138
REMARK   58  A    between atoms: _138  and  _139
REMARK   59  A    between atoms: _141  and  _143
REMARK   60  A    between atoms: _143  and  _144
REMARK   61  A    between atoms: _146  and  _148
REMARK   62  A    between atoms: _148  and  _149
REMARK   63  A    between atoms: _148  and  _151
REMARK   64  A    between atoms: _151  and  _152
REMARK   65  A    between atoms: _158  and  _160
REMARK   66  A    between atoms: _160  and  _161
REMARK   67  A    between atoms: _160  and  _163
REMARK   68  A    between atoms: _163  and  _164
REMARK   69  A    between atoms: _167  and  _169
REMARK   70  A    between atoms: _169  and  _170
REMARK   71  A    between atoms: _169  and  _172
REMARK   72  A    between atoms: _172  and  _173
REMARK   73  A    between atoms: _173  and  _174
REMARK   74  A    between atoms: _176  and  _178
REMARK   75  A    between atoms: _178  and  _179
REMARK   76  A    between atoms: _178  and  _181
REMARK   77  A    between atoms: _181  and  _182
REMARK   78  A    between atoms: _185  and  _187
REMARK   79  A    between atoms: _187  and  _188
REMARK   80  A    between atoms: _187  and  _190
REMARK   81  A    between atoms: _190  and  _191
REMARK   82  A    between atoms: _195  and  _196
REMARK   83  A    between atoms: _201  and  _203
REMARK   84  A    between atoms: _203  and  _204
REMARK   85  A    between atoms: _203  and  _206
REMARK   86  A    between atoms: _206  and  _207
REMARK   87  A    between atoms: _210  and  _212
REMARK   88  A    between atoms: _212  and  _213
REMARK   89  A    between atoms: _212  and  _215
REMARK   90  A    between atoms: _215  and  _216
REMARK   91  A    between atoms: _221  and  _223
REMARK   92  A    between atoms: _223  and  _224
REMARK   93  A    between atoms: _223  and  _226
REMARK   94  A    between atoms: _226  and  _227
REMARK   95  A    between atoms: _230  and  _232
REMARK   96  A    between atoms: _232  and  _233
REMARK   97  A    between atoms: _232  and  _235
REMARK   98  A    between atoms: _235  and  _236
REMARK   99  A    between atoms: _242  and  _244
REMARK  100  A    between atoms: _244  and  _245
REMARK  101  A    between atoms: _247  and  _249
REMARK  102  A    between atoms: _249  and  _250
REMARK  103  A    between atoms: _249  and  _252
REMARK  104  A    between atoms: _252  and  _253
REMARK  105  A    between atoms: _253  and  _254
REMARK  106  A    between atoms: _254  and  _255
REMARK  107  A    between atoms: _264  and  _266
REMARK  108  A    between atoms: _266  and  _267
REMARK  109  A    between atoms: _266  and  _269
REMARK  110  A    between atoms: _269  and  _270
REMARK  111  A    between atoms: _270  and  _271
REMARK  112  A    between atoms: _271  and  _272
REMARK  113  A    between atoms: _281  and  _283
REMARK  114  A    between atoms: _283  and  _284
REMARK  115  A    between atoms: _283  and  _286
REMARK  116  A    between atoms: _286  and  _287
REMARK  117  A    between atoms: _290  and  _292
REMARK  118  A    between atoms: _292  and  _293
REMARK  119  A    between atoms: _292  and  _295
REMARK  120  A    between atoms: _295  and  _296
REMARK  121  A    between atoms: _299  and  _301
REMARK  122  A    between atoms: _301  and  _302
REMARK  123  A    between atoms: _301  and  _304
REMARK  124  A    between atoms: _304  and  _305
REMARK  125  A    between atoms: _308  and  _310
REMARK  126  A    between atoms: _310  and  _311
REMARK  127  A    between atoms: _310  and  _313
REMARK  128  A    between atoms: _313  and  _314
REMARK  129  A    between atoms: _317  and  _319
REMARK  130  A    between atoms: _319  and  _320
REMARK  131  A    between atoms: _322  and  _324
REMARK  132  A    between atoms: _324  and  _325
REMARK  133  A    between atoms: _328  and  _330
REMARK  134  A    between atoms: _330  and  _331
REMARK  135  A    between atoms: _330  and  _333
REMARK  136  A    between atoms: _333  and  _334
REMARK  137  A    between atoms: _337  and  _339
REMARK  138  A    between atoms: _339  and  _340
REMARK  139  A    between atoms: _339  and  _342
REMARK  140  A    between atoms: _342  and  _343
REMARK  141  A    between atoms: _346  and  _348
REMARK  142  A    between atoms: _348  and  _349
REMARK  143  A    between atoms: _348  and  _351
REMARK  144  A    between atoms: _351  and  _352
REMARK  145  A    between atoms: _354  and  _356
REMARK  146  A    between atoms: _356  and  _357
REMARK  147  A    between atoms: _356  and  _359
REMARK  148  A    between atoms: _359  and  _360
REMARK  149  A    between atoms: _363  and  _365
REMARK  150  A    between atoms: _365  and  _366
REMARK  151  A    between atoms: _365  and  _368
REMARK  152  A    between atoms: _368  and  _369
REMARK  153  A    between atoms: _372  and  _374
REMARK  154  A    between atoms: _374  and  _375
REMARK  155  A    between atoms: _374  and  _377
REMARK  156  A    between atoms: _380  and  _382
REMARK  157  A    between atoms: _382  and  _383
REMARK  158  A    between atoms: _385  and  _387
REMARK  159  A    between atoms: _387  and  _388
REMARK  160  A    between atoms: _390  and  _392
REMARK  161  A    between atoms: _392  and  _393
REMARK  162  A    between atoms: _392  and  _395
REMARK  163  A    between atoms: _395  and  _396
REMARK  164  A    between atoms: _399  and  _401
REMARK  165  A    between atoms: _401  and  _402
REMARK  166  A    between atoms: _404  and  _406
REMARK  167  A    between atoms: _406  and  _407
REMARK  168  A    between atoms: _409  and  _411
REMARK  169  A    between atoms: _411  and  _412
REMARK  170  A    between atoms: _411  and  _414
REMARK  171  A    between atoms: _414  and  _415
REMARK  172  A    between atoms: _421  and  _423
REMARK  173  A    between atoms: _423  and  _424
REMARK  174  A    between atoms: _423  and  _426
REMARK  175  A    between atoms: _426  and  _427
REMARK  176  A    between atoms: _430  and  _432
REMARK  177  A    between atoms: _432  and  _433
REMARK  178  A    between atoms: _432  and  _435
REMARK  179  A    between atoms: _435  and  _436
REMARK  180  A    between atoms: _439  and  _441
REMARK  181  A    between atoms: _441  and  _442
REMARK  182  A    between atoms: _441  and  _444
REMARK  183  A    between atoms: _444  and  _445
REMARK  184  A    between atoms: _445  and  _446
REMARK  185  A    between atoms: _448  and  _450
REMARK  186  A    between atoms: _450  and  _451
REMARK  187  A    between atoms: _450  and  _453
REMARK  188  A    between atoms: _453  and  _454
REMARK  189  A    between atoms: _458  and  _459
REMARK  190  A    between atoms: _464  and  _466
REMARK  191  A    between atoms: _466  and  _467
REMARK  192  A    between atoms: _466  and  _469
REMARK  193  A    between atoms: _469  and  _470
REMARK  194  A    between atoms: _473  and  _475
REMARK  195  A    between atoms: _475  and  _476
REMARK  196  A    between atoms: _475  and  _478
REMARK  197  A    between atoms: _478  and  _479
REMARK  198  A    between atoms: _484  and  _486
REMARK  199  A    between atoms: _486  and  _487
REMARK  200  A    between atoms: _486  and  _489
REMARK  201  A    between atoms: _489  and  _490
REMARK  202  A    between atoms: _493  and  _495
REMARK  203  A    between atoms: _495  and  _496
REMARK  204  A    between atoms: _495  and  _498
REMARK  205  A    between atoms: _498  and  _499
REMARK  206  A    between atoms: _505  and  _507
REMARK  207  A    between atoms: _507  and  _508
REMARK  208  A    between atoms: _510  and  _512
REMARK  209  A    between atoms: _512  and  _513
REMARK  210  A    between atoms: _512  and  _515
REMARK  211  A    between atoms: _515  and  _516
REMARK  212  A    between atoms: _516  and  _517
REMARK  213  A    between atoms: _517  and  _518
REMARK  214  A    between atoms: _527  and  _529
REMARK  215  A    between atoms: _529  and  _530
REMARK  216  A    between atoms: _529  and  _532
REMARK  217  A    between atoms: _532  and  _533
REMARK                            x       y       z     vdW  Elec       q    Type
REMARK                         _______ _______ _______ _____ _____    ______ ____
ROOT
ATOM      1  CA  ILE A   5      -2.008  13.596  23.876  0.00  0.00    +0.149 C 
ENDROOT
BRANCH   1   2
ATOM      2  C   ILE A   5      -3.500  13.342  23.592  0.00  0.00    +0.241 C 
ATOM      3  N   GLY A   6      -4.081  12.433  24.371  0.00  0.00    -0.295 N 
ATOM      4  H   GLY A   6      -3.521  11.956  25.106  0.00  0.00    +0.150 HD
ATOM      5  O   ILE A   5      -4.110  13.996  22.701  0.00  0.00    -0.273 OA
BRANCH   3   6
ATOM      6  CA  GLY A   6      -5.500  12.092  24.209  0.00  0.00    +0.176 C 
BRANCH   6   7
ATOM      7  C   GLY A   6      -5.802  10.868  23.369  0.00  0.00    +0.243 C 
ATOM      8  O   GLY A   6      -6.920  10.360  23.302  0.00  0.00    -0.273 OA
ATOM      9  N   GLY A   7      -4.820  10.335  22.714  0.00  0.00    -0.295 N 
ATOM     10  H   GLY A   7      -3.909  10.826  22.818  0.00  0.00    +0.150 HD
BRANCH   9  11
ATOM     11  CA  GLY A   7      -4.787   9.166  21.861  0.00  0.00    +0.176 C 
BRANCH  11  12
ATOM     12  C   GLY A   7      -4.429   9.438  20.389  0.00  0.00    +0.243 C 
ATOM     13  O   GLY A   7      -3.727  10.390  19.989  0.00  0.00    -0.273 OA
ATOM     14  N   PHE A   8      -5.009   8.553  19.589  0.00  0.00    -0.297 N 
ATOM     15  H   PHE A   8      -5.623   7.848  20.045  0.00  0.00    +0.150 HD
BRANCH  14  16
ATOM     16  CA  PHE A   8      -4.881   8.463  18.160  0.00  0.00    +0.153 C 
BRANCH  16  17
ATOM     17  C   PHE A   8      -5.992   9.060  17.318  0.00  0.00    +0.241 C 
ATOM     18  O   PHE A   8      -7.131   9.222  17.762  0.00  0.00    -0.273 OA
ATOM     19  N   ILE A   9      -5.596   9.319  16.066  0.00  0.00    -0.302 N 
ATOM     20  H   ILE A   9      -4.599   9.138  15.831  0.00  0.00    +0.150 HD
BRANCH  19  21
ATOM     21  CA  ILE A   9      -6.451   9.833  15.009  0.00  0.00    +0.104 C 
BRANCH  21  22
ATOM     22  C   ILE A   9      -5.838   9.197  13.754  0.00  0.00    +0.201 C 
ATOM     23  O   ILE A   9      -4.710   8.783  13.915  0.00  0.00    -0.219 OA
ENDBRANCH  21  22
BRANCH  21  24
ATOM     24  CB  ILE A   9      -6.601  11.383  14.879  0.00  0.00    +0.021 C 
ATOM     25  CG2 ILE A   9      -7.095  11.974  16.208  0.00  0.00    +0.002 C 
BRANCH  24  26
ATOM     26  CG1 ILE A   9      -5.238  11.987  14.426  0.00  0.00    +0.002 C 
ATOM     27  CD1 ILE A   9      -5.316  13.460  13.989  0.00  0.00    +0.000 C 
ENDBRANCH  24  26
ENDBRANCH  21  24
ENDBRANCH  19  21
ENDBRANCH  16  17
BRANCH  16  28
ATOM     28  CB  PHE A   8      -4.688   6.954  17.813  0.00  0.00    +0.055 C 
BRANCH  28  29
ATOM     29  CG  PHE A   8      -3.310   6.566  18.271  0.00  0.00    -0.020 A 
ATOM     30  CD2 PHE A   8      -3.130   5.961  19.498  0.00  0.00    -0.004 A 
ATOM     31  CE2 PHE A   8      -1.857   5.650  19.959  0.00  0.00    -0.000 A 
ATOM     32  CZ  PHE A   8      -0.739   5.959  19.177  0.00  0.00    -0.000 A 
ATOM     33  CE1 PHE A   8      -0.912   6.579  17.941  0.00  0.00    -0.000 A 
ATOM     34  CD1 PHE A   8      -2.211   6.872  17.506  0.00  0.00    -0.004 A 
ENDBRANCH  28  29
ENDBRANCH  16  28
ENDBRANCH  14  16
ENDBRANCH  11  12
ENDBRANCH   9  11
ENDBRANCH   6   7
ENDBRANCH   3   6
ENDBRANCH   1   2
BRANCH   1  36
ATOM     35  C   GLY A   4      -1.122  12.328  22.004  0.00  0.00    +0.243 C 
ATOM     36  N   ILE A   5      -1.247  13.489  22.614  0.00  0.00    -0.297 N 
ATOM     37  H   ILE A   5      -0.806  14.337  22.204  0.00  0.00    +0.150 HD
ATOM     38  O   GLY A   4      -1.595  11.273  22.454  0.00  0.00    -0.273 OA
BRANCH  35  39
ATOM     39  CA  GLY A   4      -0.363  12.269  20.691  0.00  0.00    +0.176 C 
BRANCH  39  41
ATOM     40  C   GLY A   3      -0.187  10.819  18.728  0.00  0.00    +0.243 C 
ATOM     41  N   GLY A   4      -0.816  11.139  19.851  0.00  0.00    -0.295 N 
ATOM     42  H   GLY A   4      -1.644  10.584  20.147  0.00  0.00    +0.150 HD
ATOM     43  O   GLY A   3       0.777  11.408  18.235  0.00  0.00    -0.273 OA
BRANCH  40  44
ATOM     44  CA  GLY A   3      -0.737   9.635  17.978  0.00  0.00    +0.176 C 
BRANCH  44  46
ATOM     45  C   VAL A   2      -1.070   9.413  15.543  0.00  0.00    +0.241 C 
ATOM     46  N   GLY A   3      -0.290   9.489  16.595  0.00  0.00    -0.295 N 
ATOM     47  H   GLY A   3       0.736   9.441  16.430  0.00  0.00    +0.150 HD
ATOM     48  O   VAL A   2      -2.295   9.474  15.651  0.00  0.00    -0.273 OA
BRANCH  45  49
ATOM     49  CA  VAL A   2      -0.465   9.214  14.142  0.00  0.00    +0.148 C 
BRANCH  49  52
ATOM     50  C   ILE A   1      -1.360   7.111  13.170  0.00  0.00    +0.238 C 
ATOM     51  O   ILE A   1      -0.378   6.464  13.590  0.00  0.00    -0.274 OA
ATOM     52  N   VAL A   2      -1.449   8.409  13.391  0.00  0.00    -0.297 N 
ATOM     53  H   VAL A   2      -2.278   8.904  13.006  0.00  0.00    +0.150 HD
BRANCH  50  54
ATOM     54  CA  ILE A   1      -2.486   6.399  12.429  0.00  0.00    +0.145 C 
BRANCH  54  55
ATOM     55  N   ILE A   1      -2.290   6.193  11.011  0.00  0.00    -0.238 NA
ATOM     56  H   ILE A   1      -1.697   5.379  10.752  0.00  0.00    +0.142 HD
ENDBRANCH  54  55
BRANCH  54  57
ATOM     57  CB  ILE A   1      -2.752   5.023  13.183  0.00  0.00    +0.025 C 
ATOM     58  CG2 ILE A   1      -4.064   4.300  12.866  0.00  0.00    +0.002 C 
BRANCH  57  59
ATOM     59  CG1 ILE A   1      -1.566   4.071  12.972  0.00  0.00    +0.002 C 
ATOM     60  CD1 ILE A   1      -1.695   2.579  13.361  0.00  0.00    +0.000 C 
ENDBRANCH  57  59
ENDBRANCH  54  57
ENDBRANCH  50  54
ENDBRANCH  49  52
BRANCH  49  61
ATOM     61  CB  VAL A   2      -0.159  10.489  13.371  0.00  0.00    +0.027 C 
ATOM     62  CG2 VAL A   2      -0.264  11.696  14.291  0.00  0.00    +0.002 C 
ATOM     63  CG1 VAL A   2      -1.146  10.764  12.241  0.00  0.00    +0.002 C 
ENDBRANCH  49  61
ENDBRANCH  45  49
ENDBRANCH  44  46
ENDBRANCH  40  44
ENDBRANCH  39  41
ENDBRANCH  35  39
ENDBRANCH   1  36
BRANCH   1  64
ATOM     64  CB  ILE A   5      -1.743  14.959  24.592  0.00  0.00    +0.027 C 
ATOM     65  CG2 ILE A   5      -2.867  15.468  25.510  0.00  0.00    +0.002 C 
BRANCH  64  66
ATOM     66  CG1 ILE A   5      -0.443  14.881  25.440  0.00  0.00    +0.002 C 
ATOM     67  CD1 ILE A   5      -0.565  14.003  26.710  0.00  0.00    +0.000 C 
ENDBRANCH  64  66
ENDBRANCH   1  64
TORSDOF 27
REMARK  Name = ../refined-set-2016/1ivp/1ivp_pocket.pdb
REMARK  217 active torsions:
REMARK  status: ('A' for Active; 'I' for Inactive)
REMARK    1  A    between atoms: _1  and  _3
REMARK    2  A    between atoms: _3  and  _4
REMARK    3  A    between atoms: _3  and  _6
REMARK    4  A    between atoms: _6  and  _7
REMARK    5  A    between atoms: _7  and  _8
REMARK    6  A    between atoms: _8  and  _9
REMARK    7  A    between atoms: _18  and  _20
REMARK    8  A    between atoms: _20  and  _21
REMARK    9  A    between atoms: _20  and  _23
REMARK   10  A    between atoms: _23  and  _24
REMARK   11  A    between atoms: _27  and  _29
REMARK   12  A    between atoms: _29  and  _30
REMARK   13  A    between atoms: _29  and  _32
REMARK   14  A    between atoms: _32  and  _33
REMARK   15  A    between atoms: _36  and  _38
REMARK   16  A    between atoms: _38  and  _39
REMARK   17  A    between atoms: _38  and  _41
REMARK   18  A    between atoms: _41  and  _42
REMARK   19  A    between atoms: _45  and  _47
REMARK   20  A    between atoms: _47  and  _48
REMARK   21  A    between atoms: _47  and  _50
REMARK   22  A    between atoms: _50  and  _51
REMARK   23  A    between atoms: _54  and  _56
REMARK   24  A    between atoms: _56  and  _57
REMARK   25  A    between atoms: _59  and  _61
REMARK   26  A    between atoms: _61  and  _62
REMARK   27  A    between atoms: _65  and  _67
REMARK   28  A    between atoms: _67  and  _68
REMARK   29  A    between atoms: _67  and  _70
REMARK   30  A    between atoms: _70  and  _71
REMARK   31  A    between atoms: _74  and  _76
REMARK   32  A    between atoms: _76  and  _77
REMARK   33  A    between atoms: _76  and  _79
REMARK   34  A    between atoms: _79  and  _80
REMARK   35  A    between atoms: _83  and  _85
REMARK   36  A    between atoms: _85  and  _86
REMARK   37  A    between atoms: _85  and  _88
REMARK   38  A    between atoms: _88  and  _89
REMARK   39  A    between atoms: _91  and  _93
REMARK   40  A    between atoms: _93  and  _94
REMARK   41  A    between atoms: _93  and  _96
REMARK   42  A    between atoms: _96  and  _97
REMARK   43  A    between atoms: _100  and  _102
REMARK   44  A    between atoms: _102  and  _103
REMARK   45  A    between atoms: _102  and  _105
REMARK   46  A    between atoms: _105  and  _106
REMARK   47  A    between atoms: _109  and  _111
REMARK   48  A    between atoms: _111  and  _112
REMARK   49  A    between atoms: _111  and  _114
REMARK   50  A    between atoms: _117  and  _119
REMARK   51  A    between atoms: _119  and  _120
REMARK   52  A    between atoms: _122  and  _124
REMARK   53  A    between atoms: _124  and  _125
REMARK   54  A    between atoms: _129  and  _130
REMARK   55  A    between atoms: _129  and  _132
REMARK   56  A    between atoms: _132  and  _133
REMARK   57  A    between atoms: _136  and  _138
REMARK   58  A    between atoms: _138  and  _139
REMARK   59  A    between atoms: _141  and  _143
REMARK   60  A    between atoms: _143  and  _144
REMARK   61  A    between atoms: _146  and  _148
REMARK   62  A    between atoms: _148  and  _149
REMARK   63  A    between atoms: _148  and  _151
REMARK   64  A    between atoms: _151  and  _152
REMARK   65  A    between atoms: _158  and  _160
REMARK   66  A    between atoms: _160  and  _161
REMARK   67  A    between atoms: _160  and  _163
REMARK   68  A    between atoms: _163  and  _164
REMARK   69  A    between atoms: _167  and  _169
REMARK   70  A    between atoms: _169  and  _170
REMARK   71  A    between atoms: _169  and  _172
REMARK   72  A    between atoms: _172  and  _173
REMARK   73  A    between atoms: _173  and  _174
REMARK   74  A    between atoms: _176  and  _178
REMARK   75  A    between atoms: _178  and  _179
REMARK   76  A    between atoms: _178  and  _181
REMARK   77  A    between atoms: _181  and  _182
REMARK   78  A    between atoms: _185  and  _187
REMARK   79  A    between atoms: _187  and  _188
REMARK   80  A    between atoms: _187  and  _190
REMARK   81  A    between atoms: _190  and  _191
REMARK   82  A    between atoms: _195  and  _196
REMARK   83  A    between atoms: _201  and  _203
REMARK   84  A    between atoms: _203  and  _204
REMARK   85  A    between atoms: _203  and  _206
REMARK   86  A    between atoms: _206  and  _207
REMARK   87  A    between atoms: _210  and  _212
REMARK   88  A    between atoms: _212  and  _213
REMARK   89  A    between atoms: _212  and  _215
REMARK   90  A    between atoms: _215  and  _216
REMARK   91  A    between atoms: _221  and  _223
REMARK   92  A    between atoms: _223  and  _224
REMARK   93  A    between atoms: _223  and  _226
REMARK   94  A    between atoms: _226  and  _227
REMARK   95  A    between atoms: _230  and  _232
REMARK   96  A    between atoms: _232  and  _233
REMARK   97  A    between atoms: _232  and  _235
REMARK   98  A    between atoms: _235  and  _236
REMARK   99  A    between atoms: _242  and  _244
REMARK  100  A    between atoms: _244  and  _245
REMARK  101  A    between atoms: _247  and  _249
REMARK  102  A    between atoms: _249  and  _250
REMARK  103  A    between atoms: _249  and  _252
REMARK  104  A    between atoms: _252  and  _253
REMARK  105  A    between atoms: _253  and  _254
REMARK  106  A    between atoms: _254  and  _255
REMARK  107  A    between atoms: _264  and  _266
REMARK  108  A    between atoms: _266  and  _267
REMARK  109  A    between atoms: _266  and  _269
REMARK  110  A    between atoms: _269  and  _270
REMARK  111  A    between atoms: _270  and  _271
REMARK  112  A    between atoms: _271  and  _272
REMARK  113  A    between atoms: _281  and  _283
REMARK  114  A    between atoms: _283  and  _284
REMARK  115  A    between atoms: _283  and  _286
REMARK  116  A    between atoms: _286  and  _287
REMARK  117  A    between atoms: _290  and  _292
REMARK  118  A    between atoms: _292  and  _293
REMARK  119  A    between atoms: _292  and  _295
REMARK  120  A    between atoms: _295  and  _296
REMARK  121  A    between atoms: _299  and  _301
REMARK  122  A    between atoms: _301  and  _302
REMARK  123  A    between atoms: _301  and  _304
REMARK  124  A    between atoms: _304  and  _305
REMARK  125  A    between atoms: _308  and  _310
REMARK  126  A    between atoms: _310  and  _311
REMARK  127  A    between atoms: _310  and  _313
REMARK  128  A    between atoms: _313  and  _314
REMARK  129  A    between atoms: _317  and  _319
REMARK  130  A    between atoms: _319  and  _320
REMARK  131  A    between atoms: _322  and  _324
REMARK  132  A    between atoms: _324  and  _325
REMARK  133  A    between atoms: _328  and  _330
REMARK  134  A    between atoms: _330  and  _331
REMARK  135  A    between atoms: _330  and  _333
REMARK  136  A    between atoms: _333  and  _334
REMARK  137  A    between atoms: _337  and  _339
REMARK  138  A    between atoms: _339  and  _340
REMARK  139  A    between atoms: _339  and  _342
REMARK  140  A    between atoms: _342  and  _343
REMARK  141  A    between atoms: _346  and  _348
REMARK  142  A    between atoms: _348  and  _349
REMARK  143  A    between atoms: _348  and  _351
REMARK  144  A    between atoms: _351  and  _352
REMARK  145  A    between atoms: _354  and  _356
REMARK  146  A    between atoms: _356  and  _357
REMARK  147  A    between atoms: _356  and  _359
REMARK  148  A    between atoms: _359  and  _360
REMARK  149  A    between atoms: _363  and  _365
REMARK  150  A    between atoms: _365  and  _366
REMARK  151  A    between atoms: _365  and  _368
REMARK  152  A    between atoms: _368  and  _369
REMARK  153  A    between atoms: _372  and  _374
REMARK  154  A    between atoms: _374  and  _375
REMARK  155  A    between atoms: _374  and  _377
REMARK  156  A    between atoms: _380  and  _382
REMARK  157  A    between atoms: _382  and  _383
REMARK  158  A    between atoms: _385  and  _387
REMARK  159  A    between atoms: _387  and  _388
REMARK  160  A    between atoms: _390  and  _392
REMARK  161  A    between atoms: _392  and  _393
REMARK  162  A    between atoms: _392  and  _395
REMARK  163  A    between atoms: _395  and  _396
REMARK  164  A    between atoms: _399  and  _401
REMARK  165  A    between atoms: _401  and  _402
REMARK  166  A    between atoms: _404  and  _406
REMARK  167  A    between atoms: _406  and  _407
REMARK  168  A    between atoms: _409  and  _411
REMARK  169  A    between atoms: _411  and  _412
REMARK  170  A    between atoms: _411  and  _414
REMARK  171  A    between atoms: _414  and  _415
REMARK  172  A    between atoms: _421  and  _423
REMARK  173  A    between atoms: _423  and  _424
REMARK  174  A    between atoms: _423  and  _426
REMARK  175  A    between atoms: _426  and  _427
REMARK  176  A    between atoms: _430  and  _432
REMARK  177  A    between atoms: _432  and  _433
REMARK  178  A    between atoms: _432  and  _435
REMARK  179  A    between atoms: _435  and  _436
REMARK  180  A    between atoms: _439  and  _441
REMARK  181  A    between atoms: _441  and  _442
REMARK  182  A    between atoms: _441  and  _444
REMARK  183  A    between atoms: _444  and  _445
REMARK  184  A    between atoms: _445  and  _446
REMARK  185  A    between atoms: _448  and  _450
REMARK  186  A    between atoms: _450  and  _451
REMARK  187  A    between atoms: _450  and  _453
REMARK  188  A    between atoms: _453  and  _454
REMARK  189  A    between atoms: _458  and  _459
REMARK  190  A    between atoms: _464  and  _466
REMARK  191  A    between atoms: _466  and  _467
REMARK  192  A    between atoms: _466  and  _469
REMARK  193  A    between atoms: _469  and  _470
REMARK  194  A    between atoms: _473  and  _475
REMARK  195  A    between atoms: _475  and  _476
REMARK  196  A    between atoms: _475  and  _478
REMARK  197  A    between atoms: _478  and  _479
REMARK  198  A    between atoms: _484  and  _486
REMARK  199  A    between atoms: _486  and  _487
REMARK  200  A    between atoms: _486  and  _489
REMARK  201  A    between atoms: _489  and  _490
REMARK  202  A    between atoms: _493  and  _495
REMARK  203  A    between atoms: _495  and  _496
REMARK  204  A    between atoms: _495  and  _498
REMARK  205  A    between atoms: _498  and  _499
REMARK  206  A    between atoms: _505  and  _507
REMARK  207  A    between atoms: _507  and  _508
REMARK  208  A    between atoms: _510  and  _512
REMARK  209  A    between atoms: _512  and  _513
REMARK  210  A    between atoms: _512  and  _515
REMARK  211  A    between atoms: _515  and  _516
REMARK  212  A    between atoms: _516  and  _517
REMARK  213  A    between atoms: _517  and  _518
REMARK  214  A    between atoms: _527  and  _529
REMARK  215  A    between atoms: _529  and  _530
REMARK  216  A    between atoms: _529  and  _532
REMARK  217  A    between atoms: _532  and  _533
REMARK                            x       y       z     vdW  Elec       q    Type
REMARK                         _______ _______ _______ _____ _____    ______ ____
ROOT
ATOM      1  CA  THR A   1      -4.979  10.613   8.538  0.00  0.00    +0.160 C 
ENDROOT
BRANCH   1   2
ATOM      2  N   THR A   1      -5.317   9.558   9.496  0.00  0.00    -0.237 NA
ATOM      3  H   THR A   1      -4.900   8.609   9.412  0.00  0.00    +0.142 HD
ENDBRANCH   1   2
BRANCH   1   4
ATOM      4  CB  THR A   1      -3.697  11.380   9.106  0.00  0.00    +0.134 C 
ATOM      5  CG2 THR A   1      -4.083  12.512  10.060  0.00  0.00    +0.034 C 
BRANCH   4   6
ATOM      6  OG1 THR A   1      -2.956  10.319   9.802  0.00  0.00    -0.383 OA
ATOM      7  HG1 THR A   1      -2.718   9.607   9.157  0.00  0.00    +0.210 HD
ENDBRANCH   4   6
ENDBRANCH   1   4
BRANCH   1   8
ATOM      8  C   THR A   1      -4.748  10.095   7.122  0.00  0.00    +0.227 C 
ATOM      9  O   THR A   1      -4.524   8.880   6.892  0.00  0.00    -0.287 OA
ENDBRANCH   1   8
TORSDOF 4
REMARK  Name = ../refined-set-2016/1ivp/1ivp_pocket.pdb
REMARK  217 active torsions:
REMARK  status: ('A' for Active; 'I' for Inactive)
REMARK    1  A    between atoms: _1  and  _3
REMARK    2  A    between atoms: _3  and  _4
REMARK    3  A    between atoms: _3  and  _6
REMARK    4  A    between atoms: _6  and  _7
REMARK    5  A    between atoms: _7  and  _8
REMARK    6  A    between atoms: _8  and  _9
REMARK    7  A    between atoms: _18  and  _20
REMARK    8  A    between atoms: _20  and  _21
REMARK    9  A    between atoms: _20  and  _23
REMARK   10  A    between atoms: _23  and  _24
REMARK   11  A    between atoms: _27  and  _29
REMARK   12  A    between atoms: _29  and  _30
REMARK   13  A    between atoms: _29  and  _32
REMARK   14  A    between atoms: _32  and  _33
REMARK   15  A    between atoms: _36  and  _38
REMARK   16  A    between atoms: _38  and  _39
REMARK   17  A    between atoms: _38  and  _41
REMARK   18  A    between atoms: _41  and  _42
REMARK   19  A    between atoms: _45  and  _47
REMARK   20  A    between atoms: _47  and  _48
REMARK   21  A    between atoms: _47  and  _50
REMARK   22  A    between atoms: _50  and  _51
REMARK   23  A    between atoms: _54  and  _56
REMARK   24  A    between atoms: _56  and  _57
REMARK   25  A    between atoms: _59  and  _61
REMARK   26  A    between atoms: _61  and  _62
REMARK   27  A    between atoms: _65  and  _67
REMARK   28  A    between atoms: _67  and  _68
REMARK   29  A    between atoms: _67  and  _70
REMARK   30  A    between atoms: _70  and  _71
REMARK   31  A    between atoms: _74  and  _76
REMARK   32  A    between atoms: _76  and  _77
REMARK   33  A    between atoms: _76  and  _79
REMARK   34  A    between atoms: _79  and  _80
REMARK   35  A    between atoms: _83  and  _85
REMARK   36  A    between atoms: _85  and  _86
REMARK   37  A    between atoms: _85  and  _88
REMARK   38  A    between atoms: _88  and  _89
REMARK   39  A    between atoms: _91  and  _93
REMARK   40  A    between atoms: _93  and  _94
REMARK   41  A    between atoms: _93  and  _96
REMARK   42  A    between atoms: _96  and  _97
REMARK   43  A    between atoms: _100  and  _102
REMARK   44  A    between atoms: _102  and  _103
REMARK   45  A    between atoms: _102  and  _105
REMARK   46  A    between atoms: _105  and  _106
REMARK   47  A    between atoms: _109  and  _111
REMARK   48  A    between atoms: _111  and  _112
REMARK   49  A    between atoms: _111  and  _114
REMARK   50  A    between atoms: _117  and  _119
REMARK   51  A    between atoms: _119  and  _120
REMARK   52  A    between atoms: _122  and  _124
REMARK   53  A    between atoms: _124  and  _125
REMARK   54  A    between atoms: _129  and  _130
REMARK   55  A    between atoms: _129  and  _132
REMARK   56  A    between atoms: _132  and  _133
REMARK   57  A    between atoms: _136  and  _138
REMARK   58  A    between atoms: _138  and  _139
REMARK   59  A    between atoms: _141  and  _143
REMARK   60  A    between atoms: _143  and  _144
REMARK   61  A    between atoms: _146  and  _148
REMARK   62  A    between atoms: _148  and  _149
REMARK   63  A    between atoms: _148  and  _151
REMARK   64  A    between atoms: _151  and  _152
REMARK   65  A    between atoms: _158  and  _160
REMARK   66  A    between atoms: _160  and  _161
REMARK   67  A    between atoms: _160  and  _163
REMARK   68  A    between atoms: _163  and  _164
REMARK   69  A    between atoms: _167  and  _169
REMARK   70  A    between atoms: _169  and  _170
REMARK   71  A    between atoms: _169  and  _172
REMARK   72  A    between atoms: _172  and  _173
REMARK   73  A    between atoms: _173  and  _174
REMARK   74  A    between atoms: _176  and  _178
REMARK   75  A    between atoms: _178  and  _179
REMARK   76  A    between atoms: _178  and  _181
REMARK   77  A    between atoms: _181  and  _182
REMARK   78  A    between atoms: _185  and  _187
REMARK   79  A    between atoms: _187  and  _188
REMARK   80  A    between atoms: _187  and  _190
REMARK   81  A    between atoms: _190  and  _191
REMARK   82  A    between atoms: _195  and  _196
REMARK   83  A    between atoms: _201  and  _203
REMARK   84  A    between atoms: _203  and  _204
REMARK   85  A    between atoms: _203  and  _206
REMARK   86  A    between atoms: _206  and  _207
REMARK   87  A    between atoms: _210  and  _212
REMARK   88  A    between atoms: _212  and  _213
REMARK   89  A    between atoms: _212  and  _215
REMARK   90  A    between atoms: _215  and  _216
REMARK   91  A    between atoms: _221  and  _223
REMARK   92  A    between atoms: _223  and  _224
REMARK   93  A    between atoms: _223  and  _226
REMARK   94  A    between atoms: _226  and  _227
REMARK   95  A    between atoms: _230  and  _232
REMARK   96  A    between atoms: _232  and  _233
REMARK   97  A    between atoms: _232  and  _235
REMARK   98  A    between atoms: _235  and  _236
REMARK   99  A    between atoms: _242  and  _244
REMARK  100  A    between atoms: _244  and  _245
REMARK  101  A    between atoms: _247  and  _249
REMARK  102  A    between atoms: _249  and  _250
REMARK  103  A    between atoms: _249  and  _252
REMARK  104  A    between atoms: _252  and  _253
REMARK  105  A    between atoms: _253  and  _254
REMARK  106  A    between atoms: _254  and  _255
REMARK  107  A    between atoms: _264  and  _266
REMARK  108  A    between atoms: _266  and  _267
REMARK  109  A    between atoms: _266  and  _269
REMARK  110  A    between atoms: _269  and  _270
REMARK  111  A    between atoms: _270  and  _271
REMARK  112  A    between atoms: _271  and  _272
REMARK  113  A    between atoms: _281  and  _283
REMARK  114  A    between atoms: _283  and  _284
REMARK  115  A    between atoms: _283  and  _286
REMARK  116  A    between atoms: _286  and  _287
REMARK  117  A    between atoms: _290  and  _292
REMARK  118  A    between atoms: _292  and  _293
REMARK  119  A    between atoms: _292  and  _295
REMARK  120  A    between atoms: _295  and  _296
REMARK  121  A    between atoms: _299  and  _301
REMARK  122  A    between atoms: _301  and  _302
REMARK  123  A    between atoms: _301  and  _304
REMARK  124  A    between atoms: _304  and  _305
REMARK  125  A    between atoms: _308  and  _310
REMARK  126  A    between atoms: _310  and  _311
REMARK  127  A    between atoms: _310  and  _313
REMARK  128  A    between atoms: _313  and  _314
REMARK  129  A    between atoms: _317  and  _319
REMARK  130  A    between atoms: _319  and  _320
REMARK  131  A    between atoms: _322  and  _324
REMARK  132  A    between atoms: _324  and  _325
REMARK  133  A    between atoms: _328  and  _330
REMARK  134  A    between atoms: _330  and  _331
REMARK  135  A    between atoms: _330  and  _333
REMARK  136  A    between atoms: _333  and  _334
REMARK  137  A    between atoms: _337  and  _339
REMARK  138  A    between atoms: _339  and  _340
REMARK  139  A    between atoms: _339  and  _342
REMARK  140  A    between atoms: _342  and  _343
REMARK  141  A    between atoms: _346  and  _348
REMARK  142  A    between atoms: _348  and  _349
REMARK  143  A    between atoms: _348  and  _351
REMARK  144  A    between atoms: _351  and  _352
REMARK  145  A    between atoms: _354  and  _356
REMARK  146  A    between atoms: _356  and  _357
REMARK  147  A    between atoms: _356  and  _359
REMARK  148  A    between atoms: _359  and  _360
REMARK  149  A    between atoms: _363  and  _365
REMARK  150  A    between atoms: _365  and  _366
REMARK  151  A    between atoms: _365  and  _368
REMARK  152  A    between atoms: _368  and  _369
REMARK  153  A    between atoms: _372  and  _374
REMARK  154  A    between atoms: _374  and  _375
REMARK  155  A    between atoms: _374  and  _377
REMARK  156  A    between atoms: _380  and  _382
REMARK  157  A    between atoms: _382  and  _383
REMARK  158  A    between atoms: _385  and  _387
REMARK  159  A    between atoms: _387  and  _388
REMARK  160  A    between atoms: _390  and  _392
REMARK  161  A    between atoms: _392  and  _393
REMARK  162  A    between atoms: _392  and  _395
REMARK  163  A    between atoms: _395  and  _396
REMARK  164  A    between atoms: _399  and  _401
REMARK  165  A    between atoms: _401  and  _402
REMARK  166  A    between atoms: _404  and  _406
REMARK  167  A    between atoms: _406  and  _407
REMARK  168  A    between atoms: _409  and  _411
REMARK  169  A    between atoms: _411  and  _412
REMARK  170  A    between atoms: _411  and  _414
REMARK  171  A    between atoms: _414  and  _415
REMARK  172  A    between atoms: _421  and  _423
REMARK  173  A    between atoms: _423  and  _424
REMARK  174  A    between atoms: _423  and  _426
REMARK  175  A    between atoms: _426  and  _427
REMARK  176  A    between atoms: _430  and  _432
REMARK  177  A    between atoms: _432  and  _433
REMARK  178  A    between atoms: _432  and  _435
REMARK  179  A    between atoms: _435  and  _436
REMARK  180  A    between atoms: _439  and  _441
REMARK  181  A    between atoms: _441  and  _442
REMARK  182  A    between atoms: _441  and  _444
REMARK  183  A    between atoms: _444  and  _445
REMARK  184  A    between atoms: _445  and  _446
REMARK  185  A    between atoms: _448  and  _450
REMARK  186  A    between atoms: _450  and  _451
REMARK  187  A    between atoms: _450  and  _453
REMARK  188  A    between atoms: _453  and  _454
REMARK  189  A    between atoms: _458  and  _459
REMARK  190  A    between atoms: _464  and  _466
REMARK  191  A    between atoms: _466  and  _467
REMARK  192  A    between atoms: _466  and  _469
REMARK  193  A    between atoms: _469  and  _470
REMARK  194  A    between atoms: _473  and  _475
REMARK  195  A    between atoms: _475  and  _476
REMARK  196  A    between atoms: _475  and  _478
REMARK  197  A    between atoms: _478  and  _479
REMARK  198  A    between atoms: _484  and  _486
REMARK  199  A    between atoms: _486  and  _487
REMARK  200  A    between atoms: _486  and  _489
REMARK  201  A    between atoms: _489  and  _490
REMARK  202  A    between atoms: _493  and  _495
REMARK  203  A    between atoms: _495  and  _496
REMARK  204  A    between atoms: _495  and  _498
REMARK  205  A    between atoms: _498  and  _499
REMARK  206  A    between atoms: _505  and  _507
REMARK  207  A    between atoms: _507  and  _508
REMARK  208  A    between atoms: _510  and  _512
REMARK  209  A    between atoms: _512  and  _513
REMARK  210  A    between atoms: _512  and  _515
REMARK  211  A    between atoms: _515  and  _516
REMARK  212  A    between atoms: _516  and  _517
REMARK  213  A    between atoms: _517  and  _518
REMARK  214  A    between atoms: _527  and  _529
REMARK  215  A    between atoms: _529  and  _530
REMARK  216  A    between atoms: _529  and  _532
REMARK  217  A    between atoms: _532  and  _533
REMARK                            x       y       z     vdW  Elec       q    Type
REMARK                         _______ _______ _______ _____ _____    ______ ____
ROOT
ATOM      1  CA  MET A   1      -1.023  14.547   6.592  0.00  0.00    +0.134 C 
ENDROOT
BRANCH   1   2
ATOM      2  N   MET A   1       0.091  15.443   6.207  0.00  0.00    -0.239 NA
ATOM      3  H   MET A   1       0.548  16.033   6.931  0.00  0.00    +0.142 HD
ENDBRANCH   1   2
BRANCH   1   4
ATOM      4  C   MET A   1      -2.295  15.381   6.732  0.00  0.00    +0.224 C 
ATOM      5  O   MET A   1      -2.236  16.538   7.142  0.00  0.00    -0.287 OA
ENDBRANCH   1   4
BRANCH   1   6
ATOM      6  CB  MET A   1      -0.696  13.773   7.836  0.00  0.00    +0.037 C 
BRANCH   6   7
ATOM      7  CG  MET A   1       0.361  12.725   7.675  0.00  0.00    +0.059 C 
BRANCH   7   8
ATOM      8  SD  MET A   1       0.718  12.117   9.368  0.00  0.00    -0.139 S 
ATOM      9  CE  MET A   1       1.752  10.691   8.897  0.00  0.00    +0.069 C 
ENDBRANCH   7   8
ENDBRANCH   6   7
ENDBRANCH   1   6
TORSDOF 5
REMARK  Name = ../refined-set-2016/1ivp/1ivp_pocket.pdb
REMARK  217 active torsions:
REMARK  status: ('A' for Active; 'I' for Inactive)
REMARK    1  A    between atoms: _1  and  _3
REMARK    2  A    between atoms: _3  and  _4
REMARK    3  A    between atoms: _3  and  _6
REMARK    4  A    between atoms: _6  and  _7
REMARK    5  A    between atoms: _7  and  _8
REMARK    6  A    between atoms: _8  and  _9
REMARK    7  A    between atoms: _18  and  _20
REMARK    8  A    between atoms: _20  and  _21
REMARK    9  A    between atoms: _20  and  _23
REMARK   10  A    between atoms: _23  and  _24
REMARK   11  A    between atoms: _27  and  _29
REMARK   12  A    between atoms: _29  and  _30
REMARK   13  A    between atoms: _29  and  _32
REMARK   14  A    between atoms: _32  and  _33
REMARK   15  A    between atoms: _36  and  _38
REMARK   16  A    between atoms: _38  and  _39
REMARK   17  A    between atoms: _38  and  _41
REMARK   18  A    between atoms: _41  and  _42
REMARK   19  A    between atoms: _45  and  _47
REMARK   20  A    between atoms: _47  and  _48
REMARK   21  A    between atoms: _47  and  _50
REMARK   22  A    between atoms: _50  and  _51
REMARK   23  A    between atoms: _54  and  _56
REMARK   24  A    between atoms: _56  and  _57
REMARK   25  A    between atoms: _59  and  _61
REMARK   26  A    between atoms: _61  and  _62
REMARK   27  A    between atoms: _65  and  _67
REMARK   28  A    between atoms: _67  and  _68
REMARK   29  A    between atoms: _67  and  _70
REMARK   30  A    between atoms: _70  and  _71
REMARK   31  A    between atoms: _74  and  _76
REMARK   32  A    between atoms: _76  and  _77
REMARK   33  A    between atoms: _76  and  _79
REMARK   34  A    between atoms: _79  and  _80
REMARK   35  A    between atoms: _83  and  _85
REMARK   36  A    between atoms: _85  and  _86
REMARK   37  A    between atoms: _85  and  _88
REMARK   38  A    between atoms: _88  and  _89
REMARK   39  A    between atoms: _91  and  _93
REMARK   40  A    between atoms: _93  and  _94
REMARK   41  A    between atoms: _93  and  _96
REMARK   42  A    between atoms: _96  and  _97
REMARK   43  A    between atoms: _100  and  _102
REMARK   44  A    between atoms: _102  and  _103
REMARK   45  A    between atoms: _102  and  _105
REMARK   46  A    between atoms: _105  and  _106
REMARK   47  A    between atoms: _109  and  _111
REMARK   48  A    between atoms: _111  and  _112
REMARK   49  A    between atoms: _111  and  _114
REMARK   50  A    between atoms: _117  and  _119
REMARK   51  A    between atoms: _119  and  _120
REMARK   52  A    between atoms: _122  and  _124
REMARK   53  A    between atoms: _124  and  _125
REMARK   54  A    between atoms: _129  and  _130
REMARK   55  A    between atoms: _129  and  _132
REMARK   56  A    between atoms: _132  and  _133
REMARK   57  A    between atoms: _136  and  _138
REMARK   58  A    between atoms: _138  and  _139
REMARK   59  A    between atoms: _141  and  _143
REMARK   60  A    between atoms: _143  and  _144
REMARK   61  A    between atoms: _146  and  _148
REMARK   62  A    between atoms: _148  and  _149
REMARK   63  A    between atoms: _148  and  _151
REMARK   64  A    between atoms: _151  and  _152
REMARK   65  A    between atoms: _158  and  _160
REMARK   66  A    between atoms: _160  and  _161
REMARK   67  A    between atoms: _160  and  _163
REMARK   68  A    between atoms: _163  and  _164
REMARK   69  A    between atoms: _167  and  _169
REMARK   70  A    between atoms: _169  and  _170
REMARK   71  A    between atoms: _169  and  _172
REMARK   72  A    between atoms: _172  and  _173
REMARK   73  A    between atoms: _173  and  _174
REMARK   74  A    between atoms: _176  and  _178
REMARK   75  A    between atoms: _178  and  _179
REMARK   76  A    between atoms: _178  and  _181
REMARK   77  A    between atoms: _181  and  _182
REMARK   78  A    between atoms: _185  and  _187
REMARK   79  A    between atoms: _187  and  _188
REMARK   80  A    between atoms: _187  and  _190
REMARK   81  A    between atoms: _190  and  _191
REMARK   82  A    between atoms: _195  and  _196
REMARK   83  A    between atoms: _201  and  _203
REMARK   84  A    between atoms: _203  and  _204
REMARK   85  A    between atoms: _203  and  _206
REMARK   86  A    between atoms: _206  and  _207
REMARK   87  A    between atoms: _210  and  _212
REMARK   88  A    between atoms: _212  and  _213
REMARK   89  A    between atoms: _212  and  _215
REMARK   90  A    between atoms: _215  and  _216
REMARK   91  A    between atoms: _221  and  _223
REMARK   92  A    between atoms: _223  and  _224
REMARK   93  A    between atoms: _223  and  _226
REMARK   94  A    between atoms: _226  and  _227
REMARK   95  A    between atoms: _230  and  _232
REMARK   96  A    between atoms: _232  and  _233
REMARK   97  A    between atoms: _232  and  _235
REMARK   98  A    between atoms: _235  and  _236
REMARK   99  A    between atoms: _242  and  _244
REMARK  100  A    between atoms: _244  and  _245
REMARK  101  A    between atoms: _247  and  _249
REMARK  102  A    between atoms: _249  and  _250
REMARK  103  A    between atoms: _249  and  _252
REMARK  104  A    between atoms: _252  and  _253
REMARK  105  A    between atoms: _253  and  _254
REMARK  106  A    between atoms: _254  and  _255
REMARK  107  A    between atoms: _264  and  _266
REMARK  108  A    between atoms: _266  and  _267
REMARK  109  A    between atoms: _266  and  _269
REMARK  110  A    between atoms: _269  and  _270
REMARK  111  A    between atoms: _270  and  _271
REMARK  112  A    between atoms: _271  and  _272
REMARK  113  A    between atoms: _281  and  _283
REMARK  114  A    between atoms: _283  and  _284
REMARK  115  A    between atoms: _283  and  _286
REMARK  116  A    between atoms: _286  and  _287
REMARK  117  A    between atoms: _290  and  _292
REMARK  118  A    between atoms: _292  and  _293
REMARK  119  A    between atoms: _292  and  _295
REMARK  120  A    between atoms: _295  and  _296
REMARK  121  A    between atoms: _299  and  _301
REMARK  122  A    between atoms: _301  and  _302
REMARK  123  A    between atoms: _301  and  _304
REMARK  124  A    between atoms: _304  and  _305
REMARK  125  A    between atoms: _308  and  _310
REMARK  126  A    between atoms: _310  and  _311
REMARK  127  A    between atoms: _310  and  _313
REMARK  128  A    between atoms: _313  and  _314
REMARK  129  A    between atoms: _317  and  _319
REMARK  130  A    between atoms: _319  and  _320
REMARK  131  A    between atoms: _322  and  _324
REMARK  132  A    between atoms: _324  and  _325
REMARK  133  A    between atoms: _328  and  _330
REMARK  134  A    between atoms: _330  and  _331
REMARK  135  A    between atoms: _330  and  _333
REMARK  136  A    between atoms: _333  and  _334
REMARK  137  A    between atoms: _337  and  _339
REMARK  138  A    between atoms: _339  and  _340
REMARK  139  A    between atoms: _339  and  _342
REMARK  140  A    between atoms: _342  and  _343
REMARK  141  A    between atoms: _346  and  _348
REMARK  142  A    between atoms: _348  and  _349
REMARK  143  A    between atoms: _348  and  _351
REMARK  144  A    between atoms: _351  and  _352
REMARK  145  A    between atoms: _354  and  _356
REMARK  146  A    between atoms: _356  and  _357
REMARK  147  A    between atoms: _356  and  _359
REMARK  148  A    between atoms: _359  and  _360
REMARK  149  A    between atoms: _363  and  _365
REMARK  150  A    between atoms: _365  and  _366
REMARK  151  A    between atoms: _365  and  _368
REMARK  152  A    between atoms: _368  and  _369
REMARK  153  A    between atoms: _372  and  _374
REMARK  154  A    between atoms: _374  and  _375
REMARK  155  A    between atoms: _374  and  _377
REMARK  156  A    between atoms: _380  and  _382
REMARK  157  A    between atoms: _382  and  _383
REMARK  158  A    between atoms: _385  and  _387
REMARK  159  A    between atoms: _387  and  _388
REMARK  160  A    between atoms: _390  and  _392
REMARK  161  A    between atoms: _392  and  _393
REMARK  162  A    between atoms: _392  and  _395
REMARK  163  A    between atoms: _395  and  _396
REMARK  164  A    between atoms: _399  and  _401
REMARK  165  A    between atoms: _401  and  _402
REMARK  166  A    between atoms: _404  and  _406
REMARK  167  A    between atoms: _406  and  _407
REMARK  168  A    between atoms: _409  and  _411
REMARK  169  A    between atoms: _411  and  _412
REMARK  170  A    between atoms: _411  and  _414
REMARK  171  A    between atoms: _414  and  _415
REMARK  172  A    between atoms: _421  and  _423
REMARK  173  A    between atoms: _423  and  _424
REMARK  174  A    between atoms: _423  and  _426
REMARK  175  A    between atoms: _426  and  _427
REMARK  176  A    between atoms: _430  and  _432
REMARK  177  A    between atoms: _432  and  _433
REMARK  178  A    between atoms: _432  and  _435
REMARK  179  A    between atoms: _435  and  _436
REMARK  180  A    between atoms: _439  and  _441
REMARK  181  A    between atoms: _441  and  _442
REMARK  182  A    between atoms: _441  and  _444
REMARK  183  A    between atoms: _444  and  _445
REMARK  184  A    between atoms: _445  and  _446
REMARK  185  A    between atoms: _448  and  _450
REMARK  186  A    between atoms: _450  and  _451
REMARK  187  A    between atoms: _450  and  _453
REMARK  188  A    between atoms: _453  and  _454
REMARK  189  A    between atoms: _458  and  _459
REMARK  190  A    between atoms: _464  and  _466
REMARK  191  A    between atoms: _466  and  _467
REMARK  192  A    between atoms: _466  and  _469
REMARK  193  A    between atoms: _469  and  _470
REMARK  194  A    between atoms: _473  and  _475
REMARK  195  A    between atoms: _475  and  _476
REMARK  196  A    between atoms: _475  and  _478
REMARK  197  A    between atoms: _478  and  _479
REMARK  198  A    between atoms: _484  and  _486
REMARK  199  A    between atoms: _486  and  _487
REMARK  200  A    between atoms: _486  and  _489
REMARK  201  A    between atoms: _489  and  _490
REMARK  202  A    between atoms: _493  and  _495
REMARK  203  A    between atoms: _495  and  _496
REMARK  204  A    between atoms: _495  and  _498
REMARK  205  A    between atoms: _498  and  _499
REMARK  206  A    between atoms: _505  and  _507
REMARK  207  A    between atoms: _507  and  _508
REMARK  208  A    between atoms: _510  and  _512
REMARK  209  A    between atoms: _512  and  _513
REMARK  210  A    between atoms: _512  and  _515
REMARK  211  A    between atoms: _515  and  _516
REMARK  212  A    between atoms: _516  and  _517
REMARK  213  A    between atoms: _517  and  _518
REMARK  214  A    between atoms: _527  and  _529
REMARK  215  A    between atoms: _529  and  _530
REMARK  216  A    between atoms: _529  and  _532
REMARK  217  A    between atoms: _532  and  _533
REMARK                            x       y       z     vdW  Elec       q    Type
REMARK                         _______ _______ _______ _____ _____    ______ ____
ROOT
ATOM      1  C   ILE A   5       1.751  21.407  11.469  0.00  0.00    +0.241 C 
ATOM      2  N   PHE A   6       2.833  22.098  11.682  0.00  0.00    -0.297 N 
ATOM      3  H   PHE A   6       2.804  22.751  12.491  0.00  0.00    +0.150 HD
ATOM      4  O   ILE A   5       1.617  20.594  10.545  0.00  0.00    -0.273 OA
ENDROOT
BRANCH   1   5
ATOM      5  CA  ILE A   5       0.620  21.621  12.467  0.00  0.00    +0.149 C 
BRANCH   5   8
ATOM      6  C   ASN A   4      -1.441  22.877  12.181  0.00  0.00    +0.241 C 
ATOM      7  O   ASN A   4      -1.115  23.858  12.844  0.00  0.00    -0.273 OA
ATOM      8  N   ILE A   5      -0.728  21.827  11.916  0.00  0.00    -0.297 N 
ATOM      9  H   ILE A   5      -1.126  21.100  11.288  0.00  0.00    +0.150 HD
BRANCH   6  10
ATOM     10  CA  ASN A   4      -2.853  22.944  11.575  0.00  0.00    +0.158 C 
BRANCH  10  13
ATOM     11  C   ILE A   3      -4.003  22.810  13.752  0.00  0.00    +0.241 C 
ATOM     12  O   ILE A   3      -3.637  21.643  14.015  0.00  0.00    -0.273 OA
ATOM     13  N   ASN A   4      -3.721  23.475  12.658  0.00  0.00    -0.297 N 
ATOM     14  H   ASN A   4      -4.127  24.426  12.542  0.00  0.00    +0.150 HD
BRANCH  11  15
ATOM     15  CA  ILE A   3      -4.918  23.476  14.777  0.00  0.00    +0.149 C 
BRANCH  15  18
ATOM     16  C   PRO A   2      -7.125  22.644  15.490  0.00  0.00    +0.241 C 
ATOM     17  O   PRO A   2      -7.632  23.806  15.499  0.00  0.00    -0.273 OA
ATOM     18  N   ILE A   3      -5.876  22.404  15.163  0.00  0.00    -0.297 N 
ATOM     19  H   ILE A   3      -5.541  21.420  15.174  0.00  0.00    +0.150 HD
BRANCH  16  25
ATOM     20  C   THR A   1      -7.043  19.653  14.281  0.00  0.00    +0.244 C 
ATOM     21  N   PRO A   2      -7.149  20.110  15.512  0.00  0.00    -0.272 N 
ATOM     22  CD  PRO A   2      -6.568  19.418  16.688  0.00  0.00    +0.094 C 
ATOM     23  CG  PRO A   2      -6.536  20.605  17.652  0.00  0.00    +0.024 C 
ATOM     24  CB  PRO A   2      -7.839  21.324  17.389  0.00  0.00    +0.031 C 
ATOM     25  CA  PRO A   2      -7.834  21.362  15.866  0.00  0.00    +0.152 C 
ATOM     26  O   THR A   1      -7.488  20.222  13.250  0.00  0.00    -0.273 OA
BRANCH  20  27
ATOM     27  CA  THR A   1      -6.316  18.312  14.072  0.00  0.00    +0.172 C 
BRANCH  27  28
ATOM     28  N   THR A   1      -7.248  17.624  13.148  0.00  0.00    -0.236 NA
ATOM     29  H   THR A   1      -7.247  17.900  12.145  0.00  0.00    +0.142 HD
ENDBRANCH  27  28
BRANCH  27  30
ATOM     30  CB  THR A   1      -4.896  18.564  13.449  0.00  0.00    +0.135 C 
ATOM     31  CG2 THR A   1      -4.994  19.412  12.178  0.00  0.00    +0.034 C 
BRANCH  30  32
ATOM     32  OG1 THR A   1      -4.133  19.279  14.500  0.00  0.00    -0.383 OA
ATOM     33  HG1 THR A   1      -4.591  20.129  14.719  0.00  0.00    +0.210 HD
ENDBRANCH  30  32
ENDBRANCH  27  30
ENDBRANCH  20  27
ENDBRANCH  16  25
ENDBRANCH  15  18
BRANCH  15  34
ATOM     34  CB  ILE A   3      -4.235  23.746  16.175  0.00  0.00    +0.027 C 
ATOM     35  CG2 ILE A   3      -3.451  22.475  16.604  0.00  0.00    +0.002 C 
BRANCH  34  36
ATOM     36  CG1 ILE A   3      -3.370  25.024  16.180  0.00  0.00    +0.002 C 
ATOM     37  CD1 ILE A   3      -4.242  26.279  16.465  0.00  0.00    +0.000 C 
ENDBRANCH  34  36
ENDBRANCH  15  34
ENDBRANCH  11  15
ENDBRANCH  10  13
BRANCH  10  38
ATOM     38  CB  ASN A   4      -2.828  23.831  10.323  0.00  0.00    +0.114 C 
BRANCH  38  39
ATOM     39  CG  ASN A   4      -4.188  23.905   9.646  0.00  0.00    +0.222 C 
ATOM     40  OD1 ASN A   4      -4.787  22.816   9.515  0.00  0.00    -0.275 OA
ATOM     41  ND2 ASN A   4      -4.555  25.133   9.270  0.00  0.00    -0.329 N 
ATOM     42 HD21 ASN A   4      -3.930  25.943   9.458  0.00  0.00    +0.145 HD
ATOM     43 HD22 ASN A   4      -5.466  25.279   8.790  0.00  0.00    +0.145 HD
ENDBRANCH  38  39
ENDBRANCH  10  38
ENDBRANCH   6  10
ENDBRANCH   5   8
BRANCH   5  44
ATOM     44  CB  ILE A   5       0.525  20.391  13.490  0.00  0.00    +0.027 C 
ATOM     45  CG2 ILE A   5       1.855  19.992  14.148  0.00  0.00    +0.002 C 
BRANCH  44  46
ATOM     46  CG1 ILE A   5      -0.518  20.835  14.548  0.00  0.00    +0.002 C 
ATOM     47  CD1 ILE A   5      -0.884  19.744  15.592  0.00  0.00    +0.000 C 
ENDBRANCH  44  46
ENDBRANCH   5  44
ENDBRANCH   1   5
BRANCH   2  48
ATOM     48  CA  PHE A   6       4.093  22.070  10.921  0.00  0.00    +0.153 C 
BRANCH  48  49
ATOM     49  C   PHE A   6       5.118  21.515  11.925  0.00  0.00    +0.241 C 
ATOM     50  O   PHE A   6       5.531  22.275  12.804  0.00  0.00    -0.273 OA
ATOM     51  N   GLY A   7       5.420  20.275  11.741  0.00  0.00    -0.295 N 
ATOM     52  H   GLY A   7       4.957  19.813  10.933  0.00  0.00    +0.150 HD
BRANCH  51  53
ATOM     53  CA  GLY A   7       6.317  19.443  12.510  0.00  0.00    +0.176 C 
BRANCH  53  54
ATOM     54  C   GLY A   7       7.732  19.518  11.999  0.00  0.00    +0.243 C 
ATOM     55  N   ARG A   8       8.545  18.667  12.596  0.00  0.00    -0.297 N 
ATOM     56  H   ARG A   8       8.151  18.022  13.310  0.00  0.00    +0.150 HD
ATOM     57  O   GLY A   7       8.070  20.269  11.088  0.00  0.00    -0.273 OA
BRANCH  55  58
ATOM     58  CA  ARG A   8       9.960  18.590  12.302  0.00  0.00    +0.149 C 
BRANCH  58  59
ATOM     59  C   ARG A   8      10.311  18.274  10.857  0.00  0.00    +0.241 C 
ATOM     60  O   ARG A   8      11.471  18.603  10.547  0.00  0.00    -0.273 OA
ATOM     61  N   ASN A   9       9.415  17.689  10.089  0.00  0.00    -0.298 N 
ATOM     62  H   ASN A   9       8.475  17.458  10.470  0.00  0.00    +0.150 HD
BRANCH  61  63
ATOM     63  CA  ASN A   9       9.743  17.363   8.694  0.00  0.00    +0.146 C 
BRANCH  63  64
ATOM     64  C   ASN A   9       9.867  18.676   7.942  0.00  0.00    +0.227 C 
ATOM     65  O   ASN A   9      10.778  18.763   7.107  0.00  0.00    -0.286 OA
ENDBRANCH  63  64
BRANCH  63  66
ATOM     66  CB  ASN A   9       8.828  16.324   8.101  0.00  0.00    +0.112 C 
BRANCH  66  67
ATOM     67  CG  ASN A   9       7.421  16.775   7.820  0.00  0.00    +0.222 C 
ATOM     68  OD1 ASN A   9       6.858  17.594   8.558  0.00  0.00    -0.275 OA
ATOM     69  ND2 ASN A   9       6.891  16.222   6.699  0.00  0.00    -0.329 N 
ATOM     70 HD21 ASN A   9       5.930  16.480   6.396  0.00  0.00    +0.145 HD
ATOM     71 HD22 ASN A   9       7.446  15.540   6.143  0.00  0.00    +0.145 HD
ENDBRANCH  66  67
ENDBRANCH  63  66
ENDBRANCH  61  63
ENDBRANCH  58  59
BRANCH  58  72
ATOM     72  CB  ARG A   8      10.752  17.709  13.259  0.00  0.00    +0.033 C 
BRANCH  72  73
ATOM     73  CG  ARG A   8      10.704  18.251  14.671  0.00  0.00    +0.045 C 
BRANCH  73  74
ATOM     74  CD  ARG A   8      11.485  17.420  15.613  0.00  0.00    +0.174 C 
BRANCH  74  75
ATOM     75  NE  ARG A   8      11.175  15.982  15.532  0.00  0.00    -0.265 N 
ATOM     76  HE  ARG A   8      10.445  15.609  16.172  0.00  0.00    +0.259 HD
ATOM     77  CZ  ARG A   8      11.762  15.127  14.699  0.00  0.00    +0.342 C 
ATOM     78  NH2 ARG A   8      11.528  13.819  14.792  0.00  0.00    -0.292 N 
ATOM     79 HH21 ARG A   8      10.881  13.457  15.521  0.00  0.00    +0.255 HD
ATOM     80 HH22 ARG A   8      11.992  13.160  14.135  0.00  0.00    +0.255 HD
ATOM     81  NH1 ARG A   8      12.665  15.440  13.793  0.00  0.00    -0.292 N 
ATOM     82 HH11 ARG A   8      12.974  16.427  13.686  0.00  0.00    +0.255 HD
ATOM     83 HH12 ARG A   8      13.069  14.700  13.184  0.00  0.00    +0.255 HD
ENDBRANCH  74  75
ENDBRANCH  73  74
ENDBRANCH  72  73
ENDBRANCH  58  72
ENDBRANCH  55  58
ENDBRANCH  53  54
ENDBRANCH  51  53
ENDBRANCH  48  49
BRANCH  48  84
ATOM     84  CB  PHE A   6       4.598  23.420  10.393  0.00  0.00    +0.055 C 
BRANCH  84  85
ATOM     85  CG  PHE A   6       4.128  23.657   8.980  0.00  0.00    -0.020 A 
ATOM     86  CD2 PHE A   6       3.051  22.913   8.473  0.00  0.00    -0.004 A 
ATOM     87  CE2 PHE A   6       2.620  23.123   7.177  0.00  0.00    -0.000 A 
ATOM     88  CZ  PHE A   6       3.240  24.052   6.335  0.00  0.00    -0.000 A 
ATOM     89  CE1 PHE A   6       4.316  24.806   6.861  0.00  0.00    -0.000 A 
ATOM     90  CD1 PHE A   6       4.775  24.591   8.175  0.00  0.00    -0.004 A 
ENDBRANCH  84  85
ENDBRANCH  48  84
ENDBRANCH   2  48
TORSDOF 33
REMARK  Name = ../refined-set-2016/1ivp/1ivp_pocket.pdb
REMARK  217 active torsions:
REMARK  status: ('A' for Active; 'I' for Inactive)
REMARK    1  A    between atoms: _1  and  _3
REMARK    2  A    between atoms: _3  and  _4
REMARK    3  A    between atoms: _3  and  _6
REMARK    4  A    between atoms: _6  and  _7
REMARK    5  A    between atoms: _7  and  _8
REMARK    6  A    between atoms: _8  and  _9
REMARK    7  A    between atoms: _18  and  _20
REMARK    8  A    between atoms: _20  and  _21
REMARK    9  A    between atoms: _20  and  _23
REMARK   10  A    between atoms: _23  and  _24
REMARK   11  A    between atoms: _27  and  _29
REMARK   12  A    between atoms: _29  and  _30
REMARK   13  A    between atoms: _29  and  _32
REMARK   14  A    between atoms: _32  and  _33
REMARK   15  A    between atoms: _36  and  _38
REMARK   16  A    between atoms: _38  and  _39
REMARK   17  A    between atoms: _38  and  _41
REMARK   18  A    between atoms: _41  and  _42
REMARK   19  A    between atoms: _45  and  _47
REMARK   20  A    between atoms: _47  and  _48
REMARK   21  A    between atoms: _47  and  _50
REMARK   22  A    between atoms: _50  and  _51
REMARK   23  A    between atoms: _54  and  _56
REMARK   24  A    between atoms: _56  and  _57
REMARK   25  A    between atoms: _59  and  _61
REMARK   26  A    between atoms: _61  and  _62
REMARK   27  A    between atoms: _65  and  _67
REMARK   28  A    between atoms: _67  and  _68
REMARK   29  A    between atoms: _67  and  _70
REMARK   30  A    between atoms: _70  and  _71
REMARK   31  A    between atoms: _74  and  _76
REMARK   32  A    between atoms: _76  and  _77
REMARK   33  A    between atoms: _76  and  _79
REMARK   34  A    between atoms: _79  and  _80
REMARK   35  A    between atoms: _83  and  _85
REMARK   36  A    between atoms: _85  and  _86
REMARK   37  A    between atoms: _85  and  _88
REMARK   38  A    between atoms: _88  and  _89
REMARK   39  A    between atoms: _91  and  _93
REMARK   40  A    between atoms: _93  and  _94
REMARK   41  A    between atoms: _93  and  _96
REMARK   42  A    between atoms: _96  and  _97
REMARK   43  A    between atoms: _100  and  _102
REMARK   44  A    between atoms: _102  and  _103
REMARK   45  A    between atoms: _102  and  _105
REMARK   46  A    between atoms: _105  and  _106
REMARK   47  A    between atoms: _109  and  _111
REMARK   48  A    between atoms: _111  and  _112
REMARK   49  A    between atoms: _111  and  _114
REMARK   50  A    between atoms: _117  and  _119
REMARK   51  A    between atoms: _119  and  _120
REMARK   52  A    between atoms: _122  and  _124
REMARK   53  A    between atoms: _124  and  _125
REMARK   54  A    between atoms: _129  and  _130
REMARK   55  A    between atoms: _129  and  _132
REMARK   56  A    between atoms: _132  and  _133
REMARK   57  A    between atoms: _136  and  _138
REMARK   58  A    between atoms: _138  and  _139
REMARK   59  A    between atoms: _141  and  _143
REMARK   60  A    between atoms: _143  and  _144
REMARK   61  A    between atoms: _146  and  _148
REMARK   62  A    between atoms: _148  and  _149
REMARK   63  A    between atoms: _148  and  _151
REMARK   64  A    between atoms: _151  and  _152
REMARK   65  A    between atoms: _158  and  _160
REMARK   66  A    between atoms: _160  and  _161
REMARK   67  A    between atoms: _160  and  _163
REMARK   68  A    between atoms: _163  and  _164
REMARK   69  A    between atoms: _167  and  _169
REMARK   70  A    between atoms: _169  and  _170
REMARK   71  A    between atoms: _169  and  _172
REMARK   72  A    between atoms: _172  and  _173
REMARK   73  A    between atoms: _173  and  _174
REMARK   74  A    between atoms: _176  and  _178
REMARK   75  A    between atoms: _178  and  _179
REMARK   76  A    between atoms: _178  and  _181
REMARK   77  A    between atoms: _181  and  _182
REMARK   78  A    between atoms: _185  and  _187
REMARK   79  A    between atoms: _187  and  _188
REMARK   80  A    between atoms: _187  and  _190
REMARK   81  A    between atoms: _190  and  _191
REMARK   82  A    between atoms: _195  and  _196
REMARK   83  A    between atoms: _201  and  _203
REMARK   84  A    between atoms: _203  and  _204
REMARK   85  A    between atoms: _203  and  _206
REMARK   86  A    between atoms: _206  and  _207
REMARK   87  A    between atoms: _210  and  _212
REMARK   88  A    between atoms: _212  and  _213
REMARK   89  A    between atoms: _212  and  _215
REMARK   90  A    between atoms: _215  and  _216
REMARK   91  A    between atoms: _221  and  _223
REMARK   92  A    between atoms: _223  and  _224
REMARK   93  A    between atoms: _223  and  _226
REMARK   94  A    between atoms: _226  and  _227
REMARK   95  A    between atoms: _230  and  _232
REMARK   96  A    between atoms: _232  and  _233
REMARK   97  A    between atoms: _232  and  _235
REMARK   98  A    between atoms: _235  and  _236
REMARK   99  A    between atoms: _242  and  _244
REMARK  100  A    between atoms: _244  and  _245
REMARK  101  A    between atoms: _247  and  _249
REMARK  102  A    between atoms: _249  and  _250
REMARK  103  A    between atoms: _249  and  _252
REMARK  104  A    between atoms: _252  and  _253
REMARK  105  A    between atoms: _253  and  _254
REMARK  106  A    between atoms: _254  and  _255
REMARK  107  A    between atoms: _264  and  _266
REMARK  108  A    between atoms: _266  and  _267
REMARK  109  A    between atoms: _266  and  _269
REMARK  110  A    between atoms: _269  and  _270
REMARK  111  A    between atoms: _270  and  _271
REMARK  112  A    between atoms: _271  and  _272
REMARK  113  A    between atoms: _281  and  _283
REMARK  114  A    between atoms: _283  and  _284
REMARK  115  A    between atoms: _283  and  _286
REMARK  116  A    between atoms: _286  and  _287
REMARK  117  A    between atoms: _290  and  _292
REMARK  118  A    between atoms: _292  and  _293
REMARK  119  A    between atoms: _292  and  _295
REMARK  120  A    between atoms: _295  and  _296
REMARK  121  A    between atoms: _299  and  _301
REMARK  122  A    between atoms: _301  and  _302
REMARK  123  A    between atoms: _301  and  _304
REMARK  124  A    between atoms: _304  and  _305
REMARK  125  A    between atoms: _308  and  _310
REMARK  126  A    between atoms: _310  and  _311
REMARK  127  A    between atoms: _310  and  _313
REMARK  128  A    between atoms: _313  and  _314
REMARK  129  A    between atoms: _317  and  _319
REMARK  130  A    between atoms: _319  and  _320
REMARK  131  A    between atoms: _322  and  _324
REMARK  132  A    between atoms: _324  and  _325
REMARK  133  A    between atoms: _328  and  _330
REMARK  134  A    between atoms: _330  and  _331
REMARK  135  A    between atoms: _330  and  _333
REMARK  136  A    between atoms: _333  and  _334
REMARK  137  A    between atoms: _337  and  _339
REMARK  138  A    between atoms: _339  and  _340
REMARK  139  A    between atoms: _339  and  _342
REMARK  140  A    between atoms: _342  and  _343
REMARK  141  A    between atoms: _346  and  _348
REMARK  142  A    between atoms: _348  and  _349
REMARK  143  A    between atoms: _348  and  _351
REMARK  144  A    between atoms: _351  and  _352
REMARK  145  A    between atoms: _354  and  _356
REMARK  146  A    between atoms: _356  and  _357
REMARK  147  A    between atoms: _356  and  _359
REMARK  148  A    between atoms: _359  and  _360
REMARK  149  A    between atoms: _363  and  _365
REMARK  150  A    between atoms: _365  and  _366
REMARK  151  A    between atoms: _365  and  _368
REMARK  152  A    between atoms: _368  and  _369
REMARK  153  A    between atoms: _372  and  _374
REMARK  154  A    between atoms: _374  and  _375
REMARK  155  A    between atoms: _374  and  _377
REMARK  156  A    between atoms: _380  and  _382
REMARK  157  A    between atoms: _382  and  _383
REMARK  158  A    between atoms: _385  and  _387
REMARK  159  A    between atoms: _387  and  _388
REMARK  160  A    between atoms: _390  and  _392
REMARK  161  A    between atoms: _392  and  _393
REMARK  162  A    between atoms: _392  and  _395
REMARK  163  A    between atoms: _395  and  _396
REMARK  164  A    between atoms: _399  and  _401
REMARK  165  A    between atoms: _401  and  _402
REMARK  166  A    between atoms: _404  and  _406
REMARK  167  A    between atoms: _406  and  _407
REMARK  168  A    between atoms: _409  and  _411
REMARK  169  A    between atoms: _411  and  _412
REMARK  170  A    between atoms: _411  and  _414
REMARK  171  A    between atoms: _414  and  _415
REMARK  172  A    between atoms: _421  and  _423
REMARK  173  A    between atoms: _423  and  _424
REMARK  174  A    between atoms: _423  and  _426
REMARK  175  A    between atoms: _426  and  _427
REMARK  176  A    between atoms: _430  and  _432
REMARK  177  A    between atoms: _432  and  _433
REMARK  178  A    between atoms: _432  and  _435
REMARK  179  A    between atoms: _435  and  _436
REMARK  180  A    between atoms: _439  and  _441
REMARK  181  A    between atoms: _441  and  _442
REMARK  182  A    between atoms: _441  and  _444
REMARK  183  A    between atoms: _444  and  _445
REMARK  184  A    between atoms: _445  and  _446
REMARK  185  A    between atoms: _448  and  _450
REMARK  186  A    between atoms: _450  and  _451
REMARK  187  A    between atoms: _450  and  _453
REMARK  188  A    between atoms: _453  and  _454
REMARK  189  A    between atoms: _458  and  _459
REMARK  190  A    between atoms: _464  and  _466
REMARK  191  A    between atoms: _466  and  _467
REMARK  192  A    between atoms: _466  and  _469
REMARK  193  A    between atoms: _469  and  _470
REMARK  194  A    between atoms: _473  and  _475
REMARK  195  A    between atoms: _475  and  _476
REMARK  196  A    between atoms: _475  and  _478
REMARK  197  A    between atoms: _478  and  _479
REMARK  198  A    between atoms: _484  and  _486
REMARK  199  A    between atoms: _486  and  _487
REMARK  200  A    between atoms: _486  and  _489
REMARK  201  A    between atoms: _489  and  _490
REMARK  202  A    between atoms: _493  and  _495
REMARK  203  A    between atoms: _495  and  _496
REMARK  204  A    between atoms: _495  and  _498
REMARK  205  A    between atoms: _498  and  _499
REMARK  206  A    between atoms: _505  and  _507
REMARK  207  A    between atoms: _507  and  _508
REMARK  208  A    between atoms: _510  and  _512
REMARK  209  A    between atoms: _512  and  _513
REMARK  210  A    between atoms: _512  and  _515
REMARK  211  A    between atoms: _515  and  _516
REMARK  212  A    between atoms: _516  and  _517
REMARK  213  A    between atoms: _517  and  _518
REMARK  214  A    between atoms: _527  and  _529
REMARK  215  A    between atoms: _529  and  _530
REMARK  216  A    between atoms: _529  and  _532
REMARK  217  A    between atoms: _532  and  _533
REMARK                            x       y       z     vdW  Elec       q    Type
REMARK                         _______ _______ _______ _____ _____    ______ ____
ROOT
ATOM      1  O   HOH     1       0.173  25.272  21.560  0.00  0.00    +0.000 OA
ENDROOT
TORSDOF 0
REMARK  Name = ../refined-set-2016/1ivp/1ivp_pocket.pdb
REMARK  217 active torsions:
REMARK  status: ('A' for Active; 'I' for Inactive)
REMARK    1  A    between atoms: _1  and  _3
REMARK    2  A    between atoms: _3  and  _4
REMARK    3  A    between atoms: _3  and  _6
REMARK    4  A    between atoms: _6  and  _7
REMARK    5  A    between atoms: _7  and  _8
REMARK    6  A    between atoms: _8  and  _9
REMARK    7  A    between atoms: _18  and  _20
REMARK    8  A    between atoms: _20  and  _21
REMARK    9  A    between atoms: _20  and  _23
REMARK   10  A    between atoms: _23  and  _24
REMARK   11  A    between atoms: _27  and  _29
REMARK   12  A    between atoms: _29  and  _30
REMARK   13  A    between atoms: _29  and  _32
REMARK   14  A    between atoms: _32  and  _33
REMARK   15  A    between atoms: _36  and  _38
REMARK   16  A    between atoms: _38  and  _39
REMARK   17  A    between atoms: _38  and  _41
REMARK   18  A    between atoms: _41  and  _42
REMARK   19  A    between atoms: _45  and  _47
REMARK   20  A    between atoms: _47  and  _48
REMARK   21  A    between atoms: _47  and  _50
REMARK   22  A    between atoms: _50  and  _51
REMARK   23  A    between atoms: _54  and  _56
REMARK   24  A    between atoms: _56  and  _57
REMARK   25  A    between atoms: _59  and  _61
REMARK   26  A    between atoms: _61  and  _62
REMARK   27  A    between atoms: _65  and  _67
REMARK   28  A    between atoms: _67  and  _68
REMARK   29  A    between atoms: _67  and  _70
REMARK   30  A    between atoms: _70  and  _71
REMARK   31  A    between atoms: _74  and  _76
REMARK   32  A    between atoms: _76  and  _77
REMARK   33  A    between atoms: _76  and  _79
REMARK   34  A    between atoms: _79  and  _80
REMARK   35  A    between atoms: _83  and  _85
REMARK   36  A    between atoms: _85  and  _86
REMARK   37  A    between atoms: _85  and  _88
REMARK   38  A    between atoms: _88  and  _89
REMARK   39  A    between atoms: _91  and  _93
REMARK   40  A    between atoms: _93  and  _94
REMARK   41  A    between atoms: _93  and  _96
REMARK   42  A    between atoms: _96  and  _97
REMARK   43  A    between atoms: _100  and  _102
REMARK   44  A    between atoms: _102  and  _103
REMARK   45  A    between atoms: _102  and  _105
REMARK   46  A    between atoms: _105  and  _106
REMARK   47  A    between atoms: _109  and  _111
REMARK   48  A    between atoms: _111  and  _112
REMARK   49  A    between atoms: _111  and  _114
REMARK   50  A    between atoms: _117  and  _119
REMARK   51  A    between atoms: _119  and  _120
REMARK   52  A    between atoms: _122  and  _124
REMARK   53  A    between atoms: _124  and  _125
REMARK   54  A    between atoms: _129  and  _130
REMARK   55  A    between atoms: _129  and  _132
REMARK   56  A    between atoms: _132  and  _133
REMARK   57  A    between atoms: _136  and  _138
REMARK   58  A    between atoms: _138  and  _139
REMARK   59  A    between atoms: _141  and  _143
REMARK   60  A    between atoms: _143  and  _144
REMARK   61  A    between atoms: _146  and  _148
REMARK   62  A    between atoms: _148  and  _149
REMARK   63  A    between atoms: _148  and  _151
REMARK   64  A    between atoms: _151  and  _152
REMARK   65  A    between atoms: _158  and  _160
REMARK   66  A    between atoms: _160  and  _161
REMARK   67  A    between atoms: _160  and  _163
REMARK   68  A    between atoms: _163  and  _164
REMARK   69  A    between atoms: _167  and  _169
REMARK   70  A    between atoms: _169  and  _170
REMARK   71  A    between atoms: _169  and  _172
REMARK   72  A    between atoms: _172  and  _173
REMARK   73  A    between atoms: _173  and  _174
REMARK   74  A    between atoms: _176  and  _178
REMARK   75  A    between atoms: _178  and  _179
REMARK   76  A    between atoms: _178  and  _181
REMARK   77  A    between atoms: _181  and  _182
REMARK   78  A    between atoms: _185  and  _187
REMARK   79  A    between atoms: _187  and  _188
REMARK   80  A    between atoms: _187  and  _190
REMARK   81  A    between atoms: _190  and  _191
REMARK   82  A    between atoms: _195  and  _196
REMARK   83  A    between atoms: _201  and  _203
REMARK   84  A    between atoms: _203  and  _204
REMARK   85  A    between atoms: _203  and  _206
REMARK   86  A    between atoms: _206  and  _207
REMARK   87  A    between atoms: _210  and  _212
REMARK   88  A    between atoms: _212  and  _213
REMARK   89  A    between atoms: _212  and  _215
REMARK   90  A    between atoms: _215  and  _216
REMARK   91  A    between atoms: _221  and  _223
REMARK   92  A    between atoms: _223  and  _224
REMARK   93  A    between atoms: _223  and  _226
REMARK   94  A    between atoms: _226  and  _227
REMARK   95  A    between atoms: _230  and  _232
REMARK   96  A    between atoms: _232  and  _233
REMARK   97  A    between atoms: _232  and  _235
REMARK   98  A    between atoms: _235  and  _236
REMARK   99  A    between atoms: _242  and  _244
REMARK  100  A    between atoms: _244  and  _245
REMARK  101  A    between atoms: _247  and  _249
REMARK  102  A    between atoms: _249  and  _250
REMARK  103  A    between atoms: _249  and  _252
REMARK  104  A    between atoms: _252  and  _253
REMARK  105  A    between atoms: _253  and  _254
REMARK  106  A    between atoms: _254  and  _255
REMARK  107  A    between atoms: _264  and  _266
REMARK  108  A    between atoms: _266  and  _267
REMARK  109  A    between atoms: _266  and  _269
REMARK  110  A    between atoms: _269  and  _270
REMARK  111  A    between atoms: _270  and  _271
REMARK  112  A    between atoms: _271  and  _272
REMARK  113  A    between atoms: _281  and  _283
REMARK  114  A    between atoms: _283  and  _284
REMARK  115  A    between atoms: _283  and  _286
REMARK  116  A    between atoms: _286  and  _287
REMARK  117  A    between atoms: _290  and  _292
REMARK  118  A    between atoms: _292  and  _293
REMARK  119  A    between atoms: _292  and  _295
REMARK  120  A    between atoms: _295  and  _296
REMARK  121  A    between atoms: _299  and  _301
REMARK  122  A    between atoms: _301  and  _302
REMARK  123  A    between atoms: _301  and  _304
REMARK  124  A    between atoms: _304  and  _305
REMARK  125  A    between atoms: _308  and  _310
REMARK  126  A    between atoms: _310  and  _311
REMARK  127  A    between atoms: _310  and  _313
REMARK  128  A    between atoms: _313  and  _314
REMARK  129  A    between atoms: _317  and  _319
REMARK  130  A    between atoms: _319  and  _320
REMARK  131  A    between atoms: _322  and  _324
REMARK  132  A    between atoms: _324  and  _325
REMARK  133  A    between atoms: _328  and  _330
REMARK  134  A    between atoms: _330  and  _331
REMARK  135  A    between atoms: _330  and  _333
REMARK  136  A    between atoms: _333  and  _334
REMARK  137  A    between atoms: _337  and  _339
REMARK  138  A    between atoms: _339  and  _340
REMARK  139  A    between atoms: _339  and  _342
REMARK  140  A    between atoms: _342  and  _343
REMARK  141  A    between atoms: _346  and  _348
REMARK  142  A    between atoms: _348  and  _349
REMARK  143  A    between atoms: _348  and  _351
REMARK  144  A    between atoms: _351  and  _352
REMARK  145  A    between atoms: _354  and  _356
REMARK  146  A    between atoms: _356  and  _357
REMARK  147  A    between atoms: _356  and  _359
REMARK  148  A    between atoms: _359  and  _360
REMARK  149  A    between atoms: _363  and  _365
REMARK  150  A    between atoms: _365  and  _366
REMARK  151  A    between atoms: _365  and  _368
REMARK  152  A    between atoms: _368  and  _369
REMARK  153  A    between atoms: _372  and  _374
REMARK  154  A    between atoms: _374  and  _375
REMARK  155  A    between atoms: _374  and  _377
REMARK  156  A    between atoms: _380  and  _382
REMARK  157  A    between atoms: _382  and  _383
REMARK  158  A    between atoms: _385  and  _387
REMARK  159  A    between atoms: _387  and  _388
REMARK  160  A    between atoms: _390  and  _392
REMARK  161  A    between atoms: _392  and  _393
REMARK  162  A    between atoms: _392  and  _395
REMARK  163  A    between atoms: _395  and  _396
REMARK  164  A    between atoms: _399  and  _401
REMARK  165  A    between atoms: _401  and  _402
REMARK  166  A    between atoms: _404  and  _406
REMARK  167  A    between atoms: _406  and  _407
REMARK  168  A    between atoms: _409  and  _411
REMARK  169  A    between atoms: _411  and  _412
REMARK  170  A    between atoms: _411  and  _414
REMARK  171  A    between atoms: _414  and  _415
REMARK  172  A    between atoms: _421  and  _423
REMARK  173  A    between atoms: _423  and  _424
REMARK  174  A    between atoms: _423  and  _426
REMARK  175  A    between atoms: _426  and  _427
REMARK  176  A    between atoms: _430  and  _432
REMARK  177  A    between atoms: _432  and  _433
REMARK  178  A    between atoms: _432  and  _435
REMARK  179  A    between atoms: _435  and  _436
REMARK  180  A    between atoms: _439  and  _441
REMARK  181  A    between atoms: _441  and  _442
REMARK  182  A    between atoms: _441  and  _444
REMARK  183  A    between atoms: _444  and  _445
REMARK  184  A    between atoms: _445  and  _446
REMARK  185  A    between atoms: _448  and  _450
REMARK  186  A    between atoms: _450  and  _451
REMARK  187  A    between atoms: _450  and  _453
REMARK  188  A    between atoms: _453  and  _454
REMARK  189  A    between atoms: _458  and  _459
REMARK  190  A    between atoms: _464  and  _466
REMARK  191  A    between atoms: _466  and  _467
REMARK  192  A    between atoms: _466  and  _469
REMARK  193  A    between atoms: _469  and  _470
REMARK  194  A    between atoms: _473  and  _475
REMARK  195  A    between atoms: _475  and  _476
REMARK  196  A    between atoms: _475  and  _478
REMARK  197  A    between atoms: _478  and  _479
REMARK  198  A    between atoms: _484  and  _486
REMARK  199  A    between atoms: _486  and  _487
REMARK  200  A    between atoms: _486  and  _489
REMARK  201  A    between atoms: _489  and  _490
REMARK  202  A    between atoms: _493  and  _495
REMARK  203  A    between atoms: _495  and  _496
REMARK  204  A    between atoms: _495  and  _498
REMARK  205  A    between atoms: _498  and  _499
REMARK  206  A    between atoms: _505  and  _507
REMARK  207  A    between atoms: _507  and  _508
REMARK  208  A    between atoms: _510  and  _512
REMARK  209  A    between atoms: _512  and  _513
REMARK  210  A    between atoms: _512  and  _515
REMARK  211  A    between atoms: _515  and  _516
REMARK  212  A    between atoms: _516  and  _517
REMARK  213  A    between atoms: _517  and  _518
REMARK  214  A    between atoms: _527  and  _529
REMARK  215  A    between atoms: _529  and  _530
REMARK  216  A    between atoms: _529  and  _532
REMARK  217  A    between atoms: _532  and  _533
REMARK                            x       y       z     vdW  Elec       q    Type
REMARK                         _______ _______ _______ _____ _____    ______ ____
ROOT
ATOM      1  O   HOH     1       2.940  28.852  28.344  0.00  0.00    +0.000 OA
ENDROOT
TORSDOF 0
REMARK  Name = ../refined-set-2016/1ivp/1ivp_pocket.pdb
REMARK  217 active torsions:
REMARK  status: ('A' for Active; 'I' for Inactive)
REMARK    1  A    between atoms: _1  and  _3
REMARK    2  A    between atoms: _3  and  _4
REMARK    3  A    between atoms: _3  and  _6
REMARK    4  A    between atoms: _6  and  _7
REMARK    5  A    between atoms: _7  and  _8
REMARK    6  A    between atoms: _8  and  _9
REMARK    7  A    between atoms: _18  and  _20
REMARK    8  A    between atoms: _20  and  _21
REMARK    9  A    between atoms: _20  and  _23
REMARK   10  A    between atoms: _23  and  _24
REMARK   11  A    between atoms: _27  and  _29
REMARK   12  A    between atoms: _29  and  _30
REMARK   13  A    between atoms: _29  and  _32
REMARK   14  A    between atoms: _32  and  _33
REMARK   15  A    between atoms: _36  and  _38
REMARK   16  A    between atoms: _38  and  _39
REMARK   17  A    between atoms: _38  and  _41
REMARK   18  A    between atoms: _41  and  _42
REMARK   19  A    between atoms: _45  and  _47
REMARK   20  A    between atoms: _47  and  _48
REMARK   21  A    between atoms: _47  and  _50
REMARK   22  A    between atoms: _50  and  _51
REMARK   23  A    between atoms: _54  and  _56
REMARK   24  A    between atoms: _56  and  _57
REMARK   25  A    between atoms: _59  and  _61
REMARK   26  A    between atoms: _61  and  _62
REMARK   27  A    between atoms: _65  and  _67
REMARK   28  A    between atoms: _67  and  _68
REMARK   29  A    between atoms: _67  and  _70
REMARK   30  A    between atoms: _70  and  _71
REMARK   31  A    between atoms: _74  and  _76
REMARK   32  A    between atoms: _76  and  _77
REMARK   33  A    between atoms: _76  and  _79
REMARK   34  A    between atoms: _79  and  _80
REMARK   35  A    between atoms: _83  and  _85
REMARK   36  A    between atoms: _85  and  _86
REMARK   37  A    between atoms: _85  and  _88
REMARK   38  A    between atoms: _88  and  _89
REMARK   39  A    between atoms: _91  and  _93
REMARK   40  A    between atoms: _93  and  _94
REMARK   41  A    between atoms: _93  and  _96
REMARK   42  A    between atoms: _96  and  _97
REMARK   43  A    between atoms: _100  and  _102
REMARK   44  A    between atoms: _102  and  _103
REMARK   45  A    between atoms: _102  and  _105
REMARK   46  A    between atoms: _105  and  _106
REMARK   47  A    between atoms: _109  and  _111
REMARK   48  A    between atoms: _111  and  _112
REMARK   49  A    between atoms: _111  and  _114
REMARK   50  A    between atoms: _117  and  _119
REMARK   51  A    between atoms: _119  and  _120
REMARK   52  A    between atoms: _122  and  _124
REMARK   53  A    between atoms: _124  and  _125
REMARK   54  A    between atoms: _129  and  _130
REMARK   55  A    between atoms: _129  and  _132
REMARK   56  A    between atoms: _132  and  _133
REMARK   57  A    between atoms: _136  and  _138
REMARK   58  A    between atoms: _138  and  _139
REMARK   59  A    between atoms: _141  and  _143
REMARK   60  A    between atoms: _143  and  _144
REMARK   61  A    between atoms: _146  and  _148
REMARK   62  A    between atoms: _148  and  _149
REMARK   63  A    between atoms: _148  and  _151
REMARK   64  A    between atoms: _151  and  _152
REMARK   65  A    between atoms: _158  and  _160
REMARK   66  A    between atoms: _160  and  _161
REMARK   67  A    between atoms: _160  and  _163
REMARK   68  A    between atoms: _163  and  _164
REMARK   69  A    between atoms: _167  and  _169
REMARK   70  A    between atoms: _169  and  _170
REMARK   71  A    between atoms: _169  and  _172
REMARK   72  A    between atoms: _172  and  _173
REMARK   73  A    between atoms: _173  and  _174
REMARK   74  A    between atoms: _176  and  _178
REMARK   75  A    between atoms: _178  and  _179
REMARK   76  A    between atoms: _178  and  _181
REMARK   77  A    between atoms: _181  and  _182
REMARK   78  A    between atoms: _185  and  _187
REMARK   79  A    between atoms: _187  and  _188
REMARK   80  A    between atoms: _187  and  _190
REMARK   81  A    between atoms: _190  and  _191
REMARK   82  A    between atoms: _195  and  _196
REMARK   83  A    between atoms: _201  and  _203
REMARK   84  A    between atoms: _203  and  _204
REMARK   85  A    between atoms: _203  and  _206
REMARK   86  A    between atoms: _206  and  _207
REMARK   87  A    between atoms: _210  and  _212
REMARK   88  A    between atoms: _212  and  _213
REMARK   89  A    between atoms: _212  and  _215
REMARK   90  A    between atoms: _215  and  _216
REMARK   91  A    between atoms: _221  and  _223
REMARK   92  A    between atoms: _223  and  _224
REMARK   93  A    between atoms: _223  and  _226
REMARK   94  A    between atoms: _226  and  _227
REMARK   95  A    between atoms: _230  and  _232
REMARK   96  A    between atoms: _232  and  _233
REMARK   97  A    between atoms: _232  and  _235
REMARK   98  A    between atoms: _235  and  _236
REMARK   99  A    between atoms: _242  and  _244
REMARK  100  A    between atoms: _244  and  _245
REMARK  101  A    between atoms: _247  and  _249
REMARK  102  A    between atoms: _249  and  _250
REMARK  103  A    between atoms: _249  and  _252
REMARK  104  A    between atoms: _252  and  _253
REMARK  105  A    between atoms: _253  and  _254
REMARK  106  A    between atoms: _254  and  _255
REMARK  107  A    between atoms: _264  and  _266
REMARK  108  A    between atoms: _266  and  _267
REMARK  109  A    between atoms: _266  and  _269
REMARK  110  A    between atoms: _269  and  _270
REMARK  111  A    between atoms: _270  and  _271
REMARK  112  A    between atoms: _271  and  _272
REMARK  113  A    between atoms: _281  and  _283
REMARK  114  A    between atoms: _283  and  _284
REMARK  115  A    between atoms: _283  and  _286
REMARK  116  A    between atoms: _286  and  _287
REMARK  117  A    between atoms: _290  and  _292
REMARK  118  A    between atoms: _292  and  _293
REMARK  119  A    between atoms: _292  and  _295
REMARK  120  A    between atoms: _295  and  _296
REMARK  121  A    between atoms: _299  and  _301
REMARK  122  A    between atoms: _301  and  _302
REMARK  123  A    between atoms: _301  and  _304
REMARK  124  A    between atoms: _304  and  _305
REMARK  125  A    between atoms: _308  and  _310
REMARK  126  A    between atoms: _310  and  _311
REMARK  127  A    between atoms: _310  and  _313
REMARK  128  A    between atoms: _313  and  _314
REMARK  129  A    between atoms: _317  and  _319
REMARK  130  A    between atoms: _319  and  _320
REMARK  131  A    between atoms: _322  and  _324
REMARK  132  A    between atoms: _324  and  _325
REMARK  133  A    between atoms: _328  and  _330
REMARK  134  A    between atoms: _330  and  _331
REMARK  135  A    between atoms: _330  and  _333
REMARK  136  A    between atoms: _333  and  _334
REMARK  137  A    between atoms: _337  and  _339
REMARK  138  A    between atoms: _339  and  _340
REMARK  139  A    between atoms: _339  and  _342
REMARK  140  A    between atoms: _342  and  _343
REMARK  141  A    between atoms: _346  and  _348
REMARK  142  A    between atoms: _348  and  _349
REMARK  143  A    between atoms: _348  and  _351
REMARK  144  A    between atoms: _351  and  _352
REMARK  145  A    between atoms: _354  and  _356
REMARK  146  A    between atoms: _356  and  _357
REMARK  147  A    between atoms: _356  and  _359
REMARK  148  A    between atoms: _359  and  _360
REMARK  149  A    between atoms: _363  and  _365
REMARK  150  A    between atoms: _365  and  _366
REMARK  151  A    between atoms: _365  and  _368
REMARK  152  A    between atoms: _368  and  _369
REMARK  153  A    between atoms: _372  and  _374
REMARK  154  A    between atoms: _374  and  _375
REMARK  155  A    between atoms: _374  and  _377
REMARK  156  A    between atoms: _380  and  _382
REMARK  157  A    between atoms: _382  and  _383
REMARK  158  A    between atoms: _385  and  _387
REMARK  159  A    between atoms: _387  and  _388
REMARK  160  A    between atoms: _390  and  _392
REMARK  161  A    between atoms: _392  and  _393
REMARK  162  A    between atoms: _392  and  _395
REMARK  163  A    between atoms: _395  and  _396
REMARK  164  A    between atoms: _399  and  _401
REMARK  165  A    between atoms: _401  and  _402
REMARK  166  A    between atoms: _404  and  _406
REMARK  167  A    between atoms: _406  and  _407
REMARK  168  A    between atoms: _409  and  _411
REMARK  169  A    between atoms: _411  and  _412
REMARK  170  A    between atoms: _411  and  _414
REMARK  171  A    between atoms: _414  and  _415
REMARK  172  A    between atoms: _421  and  _423
REMARK  173  A    between atoms: _423  and  _424
REMARK  174  A    between atoms: _423  and  _426
REMARK  175  A    between atoms: _426  and  _427
REMARK  176  A    between atoms: _430  and  _432
REMARK  177  A    between atoms: _432  and  _433
REMARK  178  A    between atoms: _432  and  _435
REMARK  179  A    between atoms: _435  and  _436
REMARK  180  A    between atoms: _439  and  _441
REMARK  181  A    between atoms: _441  and  _442
REMARK  182  A    between atoms: _441  and  _444
REMARK  183  A    between atoms: _444  and  _445
REMARK  184  A    between atoms: _445  and  _446
REMARK  185  A    between atoms: _448  and  _450
REMARK  186  A    between atoms: _450  and  _451
REMARK  187  A    between atoms: _450  and  _453
REMARK  188  A    between atoms: _453  and  _454
REMARK  189  A    between atoms: _458  and  _459
REMARK  190  A    between atoms: _464  and  _466
REMARK  191  A    between atoms: _466  and  _467
REMARK  192  A    between atoms: _466  and  _469
REMARK  193  A    between atoms: _469  and  _470
REMARK  194  A    between atoms: _473  and  _475
REMARK  195  A    between atoms: _475  and  _476
REMARK  196  A    between atoms: _475  and  _478
REMARK  197  A    between atoms: _478  and  _479
REMARK  198  A    between atoms: _484  and  _486
REMARK  199  A    between atoms: _486  and  _487
REMARK  200  A    between atoms: _486  and  _489
REMARK  201  A    between atoms: _489  and  _490
REMARK  202  A    between atoms: _493  and  _495
REMARK  203  A    between atoms: _495  and  _496
REMARK  204  A    between atoms: _495  and  _498
REMARK  205  A    between atoms: _498  and  _499
REMARK  206  A    between atoms: _505  and  _507
REMARK  207  A    between atoms: _507  and  _508
REMARK  208  A    between atoms: _510  and  _512
REMARK  209  A    between atoms: _512  and  _513
REMARK  210  A    between atoms: _512  and  _515
REMARK  211  A    between atoms: _515  and  _516
REMARK  212  A    between atoms: _516  and  _517
REMARK  213  A    between atoms: _517  and  _518
REMARK  214  A    between atoms: _527  and  _529
REMARK  215  A    between atoms: _529  and  _530
REMARK  216  A    between atoms: _529  and  _532
REMARK  217  A    between atoms: _532  and  _533
REMARK                            x       y       z     vdW  Elec       q    Type
REMARK                         _______ _______ _______ _____ _____    ______ ____
ROOT
ATOM      1  O   HOH     1       2.859  23.619  32.944  0.00  0.00    +0.000 OA
ENDROOT
TORSDOF 0
REMARK  Name = ../refined-set-2016/1ivp/1ivp_pocket.pdb
REMARK  217 active torsions:
REMARK  status: ('A' for Active; 'I' for Inactive)
REMARK    1  A    between atoms: _1  and  _3
REMARK    2  A    between atoms: _3  and  _4
REMARK    3  A    between atoms: _3  and  _6
REMARK    4  A    between atoms: _6  and  _7
REMARK    5  A    between atoms: _7  and  _8
REMARK    6  A    between atoms: _8  and  _9
REMARK    7  A    between atoms: _18  and  _20
REMARK    8  A    between atoms: _20  and  _21
REMARK    9  A    between atoms: _20  and  _23
REMARK   10  A    between atoms: _23  and  _24
REMARK   11  A    between atoms: _27  and  _29
REMARK   12  A    between atoms: _29  and  _30
REMARK   13  A    between atoms: _29  and  _32
REMARK   14  A    between atoms: _32  and  _33
REMARK   15  A    between atoms: _36  and  _38
REMARK   16  A    between atoms: _38  and  _39
REMARK   17  A    between atoms: _38  and  _41
REMARK   18  A    between atoms: _41  and  _42
REMARK   19  A    between atoms: _45  and  _47
REMARK   20  A    between atoms: _47  and  _48
REMARK   21  A    between atoms: _47  and  _50
REMARK   22  A    between atoms: _50  and  _51
REMARK   23  A    between atoms: _54  and  _56
REMARK   24  A    between atoms: _56  and  _57
REMARK   25  A    between atoms: _59  and  _61
REMARK   26  A    between atoms: _61  and  _62
REMARK   27  A    between atoms: _65  and  _67
REMARK   28  A    between atoms: _67  and  _68
REMARK   29  A    between atoms: _67  and  _70
REMARK   30  A    between atoms: _70  and  _71
REMARK   31  A    between atoms: _74  and  _76
REMARK   32  A    between atoms: _76  and  _77
REMARK   33  A    between atoms: _76  and  _79
REMARK   34  A    between atoms: _79  and  _80
REMARK   35  A    between atoms: _83  and  _85
REMARK   36  A    between atoms: _85  and  _86
REMARK   37  A    between atoms: _85  and  _88
REMARK   38  A    between atoms: _88  and  _89
REMARK   39  A    between atoms: _91  and  _93
REMARK   40  A    between atoms: _93  and  _94
REMARK   41  A    between atoms: _93  and  _96
REMARK   42  A    between atoms: _96  and  _97
REMARK   43  A    between atoms: _100  and  _102
REMARK   44  A    between atoms: _102  and  _103
REMARK   45  A    between atoms: _102  and  _105
REMARK   46  A    between atoms: _105  and  _106
REMARK   47  A    between atoms: _109  and  _111
REMARK   48  A    between atoms: _111  and  _112
REMARK   49  A    between atoms: _111  and  _114
REMARK   50  A    between atoms: _117  and  _119
REMARK   51  A    between atoms: _119  and  _120
REMARK   52  A    between atoms: _122  and  _124
REMARK   53  A    between atoms: _124  and  _125
REMARK   54  A    between atoms: _129  and  _130
REMARK   55  A    between atoms: _129  and  _132
REMARK   56  A    between atoms: _132  and  _133
REMARK   57  A    between atoms: _136  and  _138
REMARK   58  A    between atoms: _138  and  _139
REMARK   59  A    between atoms: _141  and  _143
REMARK   60  A    between atoms: _143  and  _144
REMARK   61  A    between atoms: _146  and  _148
REMARK   62  A    between atoms: _148  and  _149
REMARK   63  A    between atoms: _148  and  _151
REMARK   64  A    between atoms: _151  and  _152
REMARK   65  A    between atoms: _158  and  _160
REMARK   66  A    between atoms: _160  and  _161
REMARK   67  A    between atoms: _160  and  _163
REMARK   68  A    between atoms: _163  and  _164
REMARK   69  A    between atoms: _167  and  _169
REMARK   70  A    between atoms: _169  and  _170
REMARK   71  A    between atoms: _169  and  _172
REMARK   72  A    between atoms: _172  and  _173
REMARK   73  A    between atoms: _173  and  _174
REMARK   74  A    between atoms: _176  and  _178
REMARK   75  A    between atoms: _178  and  _179
REMARK   76  A    between atoms: _178  and  _181
REMARK   77  A    between atoms: _181  and  _182
REMARK   78  A    between atoms: _185  and  _187
REMARK   79  A    between atoms: _187  and  _188
REMARK   80  A    between atoms: _187  and  _190
REMARK   81  A    between atoms: _190  and  _191
REMARK   82  A    between atoms: _195  and  _196
REMARK   83  A    between atoms: _201  and  _203
REMARK   84  A    between atoms: _203  and  _204
REMARK   85  A    between atoms: _203  and  _206
REMARK   86  A    between atoms: _206  and  _207
REMARK   87  A    between atoms: _210  and  _212
REMARK   88  A    between atoms: _212  and  _213
REMARK   89  A    between atoms: _212  and  _215
REMARK   90  A    between atoms: _215  and  _216
REMARK   91  A    between atoms: _221  and  _223
REMARK   92  A    between atoms: _223  and  _224
REMARK   93  A    between atoms: _223  and  _226
REMARK   94  A    between atoms: _226  and  _227
REMARK   95  A    between atoms: _230  and  _232
REMARK   96  A    between atoms: _232  and  _233
REMARK   97  A    between atoms: _232  and  _235
REMARK   98  A    between atoms: _235  and  _236
REMARK   99  A    between atoms: _242  and  _244
REMARK  100  A    between atoms: _244  and  _245
REMARK  101  A    between atoms: _247  and  _249
REMARK  102  A    between atoms: _249  and  _250
REMARK  103  A    between atoms: _249  and  _252
REMARK  104  A    between atoms: _252  and  _253
REMARK  105  A    between atoms: _253  and  _254
REMARK  106  A    between atoms: _254  and  _255
REMARK  107  A    between atoms: _264  and  _266
REMARK  108  A    between atoms: _266  and  _267
REMARK  109  A    between atoms: _266  and  _269
REMARK  110  A    between atoms: _269  and  _270
REMARK  111  A    between atoms: _270  and  _271
REMARK  112  A    between atoms: _271  and  _272
REMARK  113  A    between atoms: _281  and  _283
REMARK  114  A    between atoms: _283  and  _284
REMARK  115  A    between atoms: _283  and  _286
REMARK  116  A    between atoms: _286  and  _287
REMARK  117  A    between atoms: _290  and  _292
REMARK  118  A    between atoms: _292  and  _293
REMARK  119  A    between atoms: _292  and  _295
REMARK  120  A    between atoms: _295  and  _296
REMARK  121  A    between atoms: _299  and  _301
REMARK  122  A    between atoms: _301  and  _302
REMARK  123  A    between atoms: _301  and  _304
REMARK  124  A    between atoms: _304  and  _305
REMARK  125  A    between atoms: _308  and  _310
REMARK  126  A    between atoms: _310  and  _311
REMARK  127  A    between atoms: _310  and  _313
REMARK  128  A    between atoms: _313  and  _314
REMARK  129  A    between atoms: _317  and  _319
REMARK  130  A    between atoms: _319  and  _320
REMARK  131  A    between atoms: _322  and  _324
REMARK  132  A    between atoms: _324  and  _325
REMARK  133  A    between atoms: _328  and  _330
REMARK  134  A    between atoms: _330  and  _331
REMARK  135  A    between atoms: _330  and  _333
REMARK  136  A    between atoms: _333  and  _334
REMARK  137  A    between atoms: _337  and  _339
REMARK  138  A    between atoms: _339  and  _340
REMARK  139  A    between atoms: _339  and  _342
REMARK  140  A    between atoms: _342  and  _343
REMARK  141  A    between atoms: _346  and  _348
REMARK  142  A    between atoms: _348  and  _349
REMARK  143  A    between atoms: _348  and  _351
REMARK  144  A    between atoms: _351  and  _352
REMARK  145  A    between atoms: _354  and  _356
REMARK  146  A    between atoms: _356  and  _357
REMARK  147  A    between atoms: _356  and  _359
REMARK  148  A    between atoms: _359  and  _360
REMARK  149  A    between atoms: _363  and  _365
REMARK  150  A    between atoms: _365  and  _366
REMARK  151  A    between atoms: _365  and  _368
REMARK  152  A    between atoms: _368  and  _369
REMARK  153  A    between atoms: _372  and  _374
REMARK  154  A    between atoms: _374  and  _375
REMARK  155  A    between atoms: _374  and  _377
REMARK  156  A    between atoms: _380  and  _382
REMARK  157  A    between atoms: _382  and  _383
REMARK  158  A    between atoms: _385  and  _387
REMARK  159  A    between atoms: _387  and  _388
REMARK  160  A    between atoms: _390  and  _392
REMARK  161  A    between atoms: _392  and  _393
REMARK  162  A    between atoms: _392  and  _395
REMARK  163  A    between atoms: _395  and  _396
REMARK  164  A    between atoms: _399  and  _401
REMARK  165  A    between atoms: _401  and  _402
REMARK  166  A    between atoms: _404  and  _406
REMARK  167  A    between atoms: _406  and  _407
REMARK  168  A    between atoms: _409  and  _411
REMARK  169  A    between atoms: _411  and  _412
REMARK  170  A    between atoms: _411  and  _414
REMARK  171  A    between atoms: _414  and  _415
REMARK  172  A    between atoms: _421  and  _423
REMARK  173  A    between atoms: _423  and  _424
REMARK  174  A    between atoms: _423  and  _426
REMARK  175  A    between atoms: _426  and  _427
REMARK  176  A    between atoms: _430  and  _432
REMARK  177  A    between atoms: _432  and  _433
REMARK  178  A    between atoms: _432  and  _435
REMARK  179  A    between atoms: _435  and  _436
REMARK  180  A    between atoms: _439  and  _441
REMARK  181  A    between atoms: _441  and  _442
REMARK  182  A    between atoms: _441  and  _444
REMARK  183  A    between atoms: _444  and  _445
REMARK  184  A    between atoms: _445  and  _446
REMARK  185  A    between atoms: _448  and  _450
REMARK  186  A    between atoms: _450  and  _451
REMARK  187  A    between atoms: _450  and  _453
REMARK  188  A    between atoms: _453  and  _454
REMARK  189  A    between atoms: _458  and  _459
REMARK  190  A    between atoms: _464  and  _466
REMARK  191  A    between atoms: _466  and  _467
REMARK  192  A    between atoms: _466  and  _469
REMARK  193  A    between atoms: _469  and  _470
REMARK  194  A    between atoms: _473  and  _475
REMARK  195  A    between atoms: _475  and  _476
REMARK  196  A    between atoms: _475  and  _478
REMARK  197  A    between atoms: _478  and  _479
REMARK  198  A    between atoms: _484  and  _486
REMARK  199  A    between atoms: _486  and  _487
REMARK  200  A    between atoms: _486  and  _489
REMARK  201  A    between atoms: _489  and  _490
REMARK  202  A    between atoms: _493  and  _495
REMARK  203  A    between atoms: _495  and  _496
REMARK  204  A    between atoms: _495  and  _498
REMARK  205  A    between atoms: _498  and  _499
REMARK  206  A    between atoms: _505  and  _507
REMARK  207  A    between atoms: _507  and  _508
REMARK  208  A    between atoms: _510  and  _512
REMARK  209  A    between atoms: _512  and  _513
REMARK  210  A    between atoms: _512  and  _515
REMARK  211  A    between atoms: _515  and  _516
REMARK  212  A    between atoms: _516  and  _517
REMARK  213  A    between atoms: _517  and  _518
REMARK  214  A    between atoms: _527  and  _529
REMARK  215  A    between atoms: _529  and  _530
REMARK  216  A    between atoms: _529  and  _532
REMARK  217  A    between atoms: _532  and  _533
REMARK                            x       y       z     vdW  Elec       q    Type
REMARK                         _______ _______ _______ _____ _____    ______ ____
ROOT
ATOM      1  O   HOH     1      13.526  10.802  22.533  0.00  0.00    +0.000 OA
ENDROOT
TORSDOF 0
REMARK  Name = ../refined-set-2016/1ivp/1ivp_pocket.pdb
REMARK  217 active torsions:
REMARK  status: ('A' for Active; 'I' for Inactive)
REMARK    1  A    between atoms: _1  and  _3
REMARK    2  A    between atoms: _3  and  _4
REMARK    3  A    between atoms: _3  and  _6
REMARK    4  A    between atoms: _6  and  _7
REMARK    5  A    between atoms: _7  and  _8
REMARK    6  A    between atoms: _8  and  _9
REMARK    7  A    between atoms: _18  and  _20
REMARK    8  A    between atoms: _20  and  _21
REMARK    9  A    between atoms: _20  and  _23
REMARK   10  A    between atoms: _23  and  _24
REMARK   11  A    between atoms: _27  and  _29
REMARK   12  A    between atoms: _29  and  _30
REMARK   13  A    between atoms: _29  and  _32
REMARK   14  A    between atoms: _32  and  _33
REMARK   15  A    between atoms: _36  and  _38
REMARK   16  A    between atoms: _38  and  _39
REMARK   17  A    between atoms: _38  and  _41
REMARK   18  A    between atoms: _41  and  _42
REMARK   19  A    between atoms: _45  and  _47
REMARK   20  A    between atoms: _47  and  _48
REMARK   21  A    between atoms: _47  and  _50
REMARK   22  A    between atoms: _50  and  _51
REMARK   23  A    between atoms: _54  and  _56
REMARK   24  A    between atoms: _56  and  _57
REMARK   25  A    between atoms: _59  and  _61
REMARK   26  A    between atoms: _61  and  _62
REMARK   27  A    between atoms: _65  and  _67
REMARK   28  A    between atoms: _67  and  _68
REMARK   29  A    between atoms: _67  and  _70
REMARK   30  A    between atoms: _70  and  _71
REMARK   31  A    between atoms: _74  and  _76
REMARK   32  A    between atoms: _76  and  _77
REMARK   33  A    between atoms: _76  and  _79
REMARK   34  A    between atoms: _79  and  _80
REMARK   35  A    between atoms: _83  and  _85
REMARK   36  A    between atoms: _85  and  _86
REMARK   37  A    between atoms: _85  and  _88
REMARK   38  A    between atoms: _88  and  _89
REMARK   39  A    between atoms: _91  and  _93
REMARK   40  A    between atoms: _93  and  _94
REMARK   41  A    between atoms: _93  and  _96
REMARK   42  A    between atoms: _96  and  _97
REMARK   43  A    between atoms: _100  and  _102
REMARK   44  A    between atoms: _102  and  _103
REMARK   45  A    between atoms: _102  and  _105
REMARK   46  A    between atoms: _105  and  _106
REMARK   47  A    between atoms: _109  and  _111
REMARK   48  A    between atoms: _111  and  _112
REMARK   49  A    between atoms: _111  and  _114
REMARK   50  A    between atoms: _117  and  _119
REMARK   51  A    between atoms: _119  and  _120
REMARK   52  A    between atoms: _122  and  _124
REMARK   53  A    between atoms: _124  and  _125
REMARK   54  A    between atoms: _129  and  _130
REMARK   55  A    between atoms: _129  and  _132
REMARK   56  A    between atoms: _132  and  _133
REMARK   57  A    between atoms: _136  and  _138
REMARK   58  A    between atoms: _138  and  _139
REMARK   59  A    between atoms: _141  and  _143
REMARK   60  A    between atoms: _143  and  _144
REMARK   61  A    between atoms: _146  and  _148
REMARK   62  A    between atoms: _148  and  _149
REMARK   63  A    between atoms: _148  and  _151
REMARK   64  A    between atoms: _151  and  _152
REMARK   65  A    between atoms: _158  and  _160
REMARK   66  A    between atoms: _160  and  _161
REMARK   67  A    between atoms: _160  and  _163
REMARK   68  A    between atoms: _163  and  _164
REMARK   69  A    between atoms: _167  and  _169
REMARK   70  A    between atoms: _169  and  _170
REMARK   71  A    between atoms: _169  and  _172
REMARK   72  A    between atoms: _172  and  _173
REMARK   73  A    between atoms: _173  and  _174
REMARK   74  A    between atoms: _176  and  _178
REMARK   75  A    between atoms: _178  and  _179
REMARK   76  A    between atoms: _178  and  _181
REMARK   77  A    between atoms: _181  and  _182
REMARK   78  A    between atoms: _185  and  _187
REMARK   79  A    between atoms: _187  and  _188
REMARK   80  A    between atoms: _187  and  _190
REMARK   81  A    between atoms: _190  and  _191
REMARK   82  A    between atoms: _195  and  _196
REMARK   83  A    between atoms: _201  and  _203
REMARK   84  A    between atoms: _203  and  _204
REMARK   85  A    between atoms: _203  and  _206
REMARK   86  A    between atoms: _206  and  _207
REMARK   87  A    between atoms: _210  and  _212
REMARK   88  A    between atoms: _212  and  _213
REMARK   89  A    between atoms: _212  and  _215
REMARK   90  A    between atoms: _215  and  _216
REMARK   91  A    between atoms: _221  and  _223
REMARK   92  A    between atoms: _223  and  _224
REMARK   93  A    between atoms: _223  and  _226
REMARK   94  A    between atoms: _226  and  _227
REMARK   95  A    between atoms: _230  and  _232
REMARK   96  A    between atoms: _232  and  _233
REMARK   97  A    between atoms: _232  and  _235
REMARK   98  A    between atoms: _235  and  _236
REMARK   99  A    between atoms: _242  and  _244
REMARK  100  A    between atoms: _244  and  _245
REMARK  101  A    between atoms: _247  and  _249
REMARK  102  A    between atoms: _249  and  _250
REMARK  103  A    between atoms: _249  and  _252
REMARK  104  A    between atoms: _252  and  _253
REMARK  105  A    between atoms: _253  and  _254
REMARK  106  A    between atoms: _254  and  _255
REMARK  107  A    between atoms: _264  and  _266
REMARK  108  A    between atoms: _266  and  _267
REMARK  109  A    between atoms: _266  and  _269
REMARK  110  A    between atoms: _269  and  _270
REMARK  111  A    between atoms: _270  and  _271
REMARK  112  A    between atoms: _271  and  _272
REMARK  113  A    between atoms: _281  and  _283
REMARK  114  A    between atoms: _283  and  _284
REMARK  115  A    between atoms: _283  and  _286
REMARK  116  A    between atoms: _286  and  _287
REMARK  117  A    between atoms: _290  and  _292
REMARK  118  A    between atoms: _292  and  _293
REMARK  119  A    between atoms: _292  and  _295
REMARK  120  A    between atoms: _295  and  _296
REMARK  121  A    between atoms: _299  and  _301
REMARK  122  A    between atoms: _301  and  _302
REMARK  123  A    between atoms: _301  and  _304
REMARK  124  A    between atoms: _304  and  _305
REMARK  125  A    between atoms: _308  and  _310
REMARK  126  A    between atoms: _310  and  _311
REMARK  127  A    between atoms: _310  and  _313
REMARK  128  A    between atoms: _313  and  _314
REMARK  129  A    between atoms: _317  and  _319
REMARK  130  A    between atoms: _319  and  _320
REMARK  131  A    between atoms: _322  and  _324
REMARK  132  A    between atoms: _324  and  _325
REMARK  133  A    between atoms: _328  and  _330
REMARK  134  A    between atoms: _330  and  _331
REMARK  135  A    between atoms: _330  and  _333
REMARK  136  A    between atoms: _333  and  _334
REMARK  137  A    between atoms: _337  and  _339
REMARK  138  A    between atoms: _339  and  _340
REMARK  139  A    between atoms: _339  and  _342
REMARK  140  A    between atoms: _342  and  _343
REMARK  141  A    between atoms: _346  and  _348
REMARK  142  A    between atoms: _348  and  _349
REMARK  143  A    between atoms: _348  and  _351
REMARK  144  A    between atoms: _351  and  _352
REMARK  145  A    between atoms: _354  and  _356
REMARK  146  A    between atoms: _356  and  _357
REMARK  147  A    between atoms: _356  and  _359
REMARK  148  A    between atoms: _359  and  _360
REMARK  149  A    between atoms: _363  and  _365
REMARK  150  A    between atoms: _365  and  _366
REMARK  151  A    between atoms: _365  and  _368
REMARK  152  A    between atoms: _368  and  _369
REMARK  153  A    between atoms: _372  and  _374
REMARK  154  A    between atoms: _374  and  _375
REMARK  155  A    between atoms: _374  and  _377
REMARK  156  A    between atoms: _380  and  _382
REMARK  157  A    between atoms: _382  and  _383
REMARK  158  A    between atoms: _385  and  _387
REMARK  159  A    between atoms: _387  and  _388
REMARK  160  A    between atoms: _390  and  _392
REMARK  161  A    between atoms: _392  and  _393
REMARK  162  A    between atoms: _392  and  _395
REMARK  163  A    between atoms: _395  and  _396
REMARK  164  A    between atoms: _399  and  _401
REMARK  165  A    between atoms: _401  and  _402
REMARK  166  A    between atoms: _404  and  _406
REMARK  167  A    between atoms: _406  and  _407
REMARK  168  A    between atoms: _409  and  _411
REMARK  169  A    between atoms: _411  and  _412
REMARK  170  A    between atoms: _411  and  _414
REMARK  171  A    between atoms: _414  and  _415
REMARK  172  A    between atoms: _421  and  _423
REMARK  173  A    between atoms: _423  and  _424
REMARK  174  A    between atoms: _423  and  _426
REMARK  175  A    between atoms: _426  and  _427
REMARK  176  A    between atoms: _430  and  _432
REMARK  177  A    between atoms: _432  and  _433
REMARK  178  A    between atoms: _432  and  _435
REMARK  179  A    between atoms: _435  and  _436
REMARK  180  A    between atoms: _439  and  _441
REMARK  181  A    between atoms: _441  and  _442
REMARK  182  A    between atoms: _441  and  _444
REMARK  183  A    between atoms: _444  and  _445
REMARK  184  A    between atoms: _445  and  _446
REMARK  185  A    between atoms: _448  and  _450
REMARK  186  A    between atoms: _450  and  _451
REMARK  187  A    between atoms: _450  and  _453
REMARK  188  A    between atoms: _453  and  _454
REMARK  189  A    between atoms: _458  and  _459
REMARK  190  A    between atoms: _464  and  _466
REMARK  191  A    between atoms: _466  and  _467
REMARK  192  A    between atoms: _466  and  _469
REMARK  193  A    between atoms: _469  and  _470
REMARK  194  A    between atoms: _473  and  _475
REMARK  195  A    between atoms: _475  and  _476
REMARK  196  A    between atoms: _475  and  _478
REMARK  197  A    between atoms: _478  and  _479
REMARK  198  A    between atoms: _484  and  _486
REMARK  199  A    between atoms: _486  and  _487
REMARK  200  A    between atoms: _486  and  _489
REMARK  201  A    between atoms: _489  and  _490
REMARK  202  A    between atoms: _493  and  _495
REMARK  203  A    between atoms: _495  and  _496
REMARK  204  A    between atoms: _495  and  _498
REMARK  205  A    between atoms: _498  and  _499
REMARK  206  A    between atoms: _505  and  _507
REMARK  207  A    between atoms: _507  and  _508
REMARK  208  A    between atoms: _510  and  _512
REMARK  209  A    between atoms: _512  and  _513
REMARK  210  A    between atoms: _512  and  _515
REMARK  211  A    between atoms: _515  and  _516
REMARK  212  A    between atoms: _516  and  _517
REMARK  213  A    between atoms: _517  and  _518
REMARK  214  A    between atoms: _527  and  _529
REMARK  215  A    between atoms: _529  and  _530
REMARK  216  A    between atoms: _529  and  _532
REMARK  217  A    between atoms: _532  and  _533
REMARK                            x       y       z     vdW  Elec       q    Type
REMARK                         _______ _______ _______ _____ _____    ______ ____
ROOT
ATOM      1  O   HOH     1      -3.625  25.778  26.719  0.00  0.00    +0.000 OA
ENDROOT
TORSDOF 0
REMARK  Name = ../refined-set-2016/1ivp/1ivp_pocket.pdb
REMARK  217 active torsions:
REMARK  status: ('A' for Active; 'I' for Inactive)
REMARK    1  A    between atoms: _1  and  _3
REMARK    2  A    between atoms: _3  and  _4
REMARK    3  A    between atoms: _3  and  _6
REMARK    4  A    between atoms: _6  and  _7
REMARK    5  A    between atoms: _7  and  _8
REMARK    6  A    between atoms: _8  and  _9
REMARK    7  A    between atoms: _18  and  _20
REMARK    8  A    between atoms: _20  and  _21
REMARK    9  A    between atoms: _20  and  _23
REMARK   10  A    between atoms: _23  and  _24
REMARK   11  A    between atoms: _27  and  _29
REMARK   12  A    between atoms: _29  and  _30
REMARK   13  A    between atoms: _29  and  _32
REMARK   14  A    between atoms: _32  and  _33
REMARK   15  A    between atoms: _36  and  _38
REMARK   16  A    between atoms: _38  and  _39
REMARK   17  A    between atoms: _38  and  _41
REMARK   18  A    between atoms: _41  and  _42
REMARK   19  A    between atoms: _45  and  _47
REMARK   20  A    between atoms: _47  and  _48
REMARK   21  A    between atoms: _47  and  _50
REMARK   22  A    between atoms: _50  and  _51
REMARK   23  A    between atoms: _54  and  _56
REMARK   24  A    between atoms: _56  and  _57
REMARK   25  A    between atoms: _59  and  _61
REMARK   26  A    between atoms: _61  and  _62
REMARK   27  A    between atoms: _65  and  _67
REMARK   28  A    between atoms: _67  and  _68
REMARK   29  A    between atoms: _67  and  _70
REMARK   30  A    between atoms: _70  and  _71
REMARK   31  A    between atoms: _74  and  _76
REMARK   32  A    between atoms: _76  and  _77
REMARK   33  A    between atoms: _76  and  _79
REMARK   34  A    between atoms: _79  and  _80
REMARK   35  A    between atoms: _83  and  _85
REMARK   36  A    between atoms: _85  and  _86
REMARK   37  A    between atoms: _85  and  _88
REMARK   38  A    between atoms: _88  and  _89
REMARK   39  A    between atoms: _91  and  _93
REMARK   40  A    between atoms: _93  and  _94
REMARK   41  A    between atoms: _93  and  _96
REMARK   42  A    between atoms: _96  and  _97
REMARK   43  A    between atoms: _100  and  _102
REMARK   44  A    between atoms: _102  and  _103
REMARK   45  A    between atoms: _102  and  _105
REMARK   46  A    between atoms: _105  and  _106
REMARK   47  A    between atoms: _109  and  _111
REMARK   48  A    between atoms: _111  and  _112
REMARK   49  A    between atoms: _111  and  _114
REMARK   50  A    between atoms: _117  and  _119
REMARK   51  A    between atoms: _119  and  _120
REMARK   52  A    between atoms: _122  and  _124
REMARK   53  A    between atoms: _124  and  _125
REMARK   54  A    between atoms: _129  and  _130
REMARK   55  A    between atoms: _129  and  _132
REMARK   56  A    between atoms: _132  and  _133
REMARK   57  A    between atoms: _136  and  _138
REMARK   58  A    between atoms: _138  and  _139
REMARK   59  A    between atoms: _141  and  _143
REMARK   60  A    between atoms: _143  and  _144
REMARK   61  A    between atoms: _146  and  _148
REMARK   62  A    between atoms: _148  and  _149
REMARK   63  A    between atoms: _148  and  _151
REMARK   64  A    between atoms: _151  and  _152
REMARK   65  A    between atoms: _158  and  _160
REMARK   66  A    between atoms: _160  and  _161
REMARK   67  A    between atoms: _160  and  _163
REMARK   68  A    between atoms: _163  and  _164
REMARK   69  A    between atoms: _167  and  _169
REMARK   70  A    between atoms: _169  and  _170
REMARK   71  A    between atoms: _169  and  _172
REMARK   72  A    between atoms: _172  and  _173
REMARK   73  A    between atoms: _173  and  _174
REMARK   74  A    between atoms: _176  and  _178
REMARK   75  A    between atoms: _178  and  _179
REMARK   76  A    between atoms: _178  and  _181
REMARK   77  A    between atoms: _181  and  _182
REMARK   78  A    between atoms: _185  and  _187
REMARK   79  A    between atoms: _187  and  _188
REMARK   80  A    between atoms: _187  and  _190
REMARK   81  A    between atoms: _190  and  _191
REMARK   82  A    between atoms: _195  and  _196
REMARK   83  A    between atoms: _201  and  _203
REMARK   84  A    between atoms: _203  and  _204
REMARK   85  A    between atoms: _203  and  _206
REMARK   86  A    between atoms: _206  and  _207
REMARK   87  A    between atoms: _210  and  _212
REMARK   88  A    between atoms: _212  and  _213
REMARK   89  A    between atoms: _212  and  _215
REMARK   90  A    between atoms: _215  and  _216
REMARK   91  A    between atoms: _221  and  _223
REMARK   92  A    between atoms: _223  and  _224
REMARK   93  A    between atoms: _223  and  _226
REMARK   94  A    between atoms: _226  and  _227
REMARK   95  A    between atoms: _230  and  _232
REMARK   96  A    between atoms: _232  and  _233
REMARK   97  A    between atoms: _232  and  _235
REMARK   98  A    between atoms: _235  and  _236
REMARK   99  A    between atoms: _242  and  _244
REMARK  100  A    between atoms: _244  and  _245
REMARK  101  A    between atoms: _247  and  _249
REMARK  102  A    between atoms: _249  and  _250
REMARK  103  A    between atoms: _249  and  _252
REMARK  104  A    between atoms: _252  and  _253
REMARK  105  A    between atoms: _253  and  _254
REMARK  106  A    between atoms: _254  and  _255
REMARK  107  A    between atoms: _264  and  _266
REMARK  108  A    between atoms: _266  and  _267
REMARK  109  A    between atoms: _266  and  _269
REMARK  110  A    between atoms: _269  and  _270
REMARK  111  A    between atoms: _270  and  _271
REMARK  112  A    between atoms: _271  and  _272
REMARK  113  A    between atoms: _281  and  _283
REMARK  114  A    between atoms: _283  and  _284
REMARK  115  A    between atoms: _283  and  _286
REMARK  116  A    between atoms: _286  and  _287
REMARK  117  A    between atoms: _290  and  _292
REMARK  118  A    between atoms: _292  and  _293
REMARK  119  A    between atoms: _292  and  _295
REMARK  120  A    between atoms: _295  and  _296
REMARK  121  A    between atoms: _299  and  _301
REMARK  122  A    between atoms: _301  and  _302
REMARK  123  A    between atoms: _301  and  _304
REMARK  124  A    between atoms: _304  and  _305
REMARK  125  A    between atoms: _308  and  _310
REMARK  126  A    between atoms: _310  and  _311
REMARK  127  A    between atoms: _310  and  _313
REMARK  128  A    between atoms: _313  and  _314
REMARK  129  A    between atoms: _317  and  _319
REMARK  130  A    between atoms: _319  and  _320
REMARK  131  A    between atoms: _322  and  _324
REMARK  132  A    between atoms: _324  and  _325
REMARK  133  A    between atoms: _328  and  _330
REMARK  134  A    between atoms: _330  and  _331
REMARK  135  A    between atoms: _330  and  _333
REMARK  136  A    between atoms: _333  and  _334
REMARK  137  A    between atoms: _337  and  _339
REMARK  138  A    between atoms: _339  and  _340
REMARK  139  A    between atoms: _339  and  _342
REMARK  140  A    between atoms: _342  and  _343
REMARK  141  A    between atoms: _346  and  _348
REMARK  142  A    between atoms: _348  and  _349
REMARK  143  A    between atoms: _348  and  _351
REMARK  144  A    between atoms: _351  and  _352
REMARK  145  A    between atoms: _354  and  _356
REMARK  146  A    between atoms: _356  and  _357
REMARK  147  A    between atoms: _356  and  _359
REMARK  148  A    between atoms: _359  and  _360
REMARK  149  A    between atoms: _363  and  _365
REMARK  150  A    between atoms: _365  and  _366
REMARK  151  A    between atoms: _365  and  _368
REMARK  152  A    between atoms: _368  and  _369
REMARK  153  A    between atoms: _372  and  _374
REMARK  154  A    between atoms: _374  and  _375
REMARK  155  A    between atoms: _374  and  _377
REMARK  156  A    between atoms: _380  and  _382
REMARK  157  A    between atoms: _382  and  _383
REMARK  158  A    between atoms: _385  and  _387
REMARK  159  A    between atoms: _387  and  _388
REMARK  160  A    between atoms: _390  and  _392
REMARK  161  A    between atoms: _392  and  _393
REMARK  162  A    between atoms: _392  and  _395
REMARK  163  A    between atoms: _395  and  _396
REMARK  164  A    between atoms: _399  and  _401
REMARK  165  A    between atoms: _401  and  _402
REMARK  166  A    between atoms: _404  and  _406
REMARK  167  A    between atoms: _406  and  _407
REMARK  168  A    between atoms: _409  and  _411
REMARK  169  A    between atoms: _411  and  _412
REMARK  170  A    between atoms: _411  and  _414
REMARK  171  A    between atoms: _414  and  _415
REMARK  172  A    between atoms: _421  and  _423
REMARK  173  A    between atoms: _423  and  _424
REMARK  174  A    between atoms: _423  and  _426
REMARK  175  A    between atoms: _426  and  _427
REMARK  176  A    between atoms: _430  and  _432
REMARK  177  A    between atoms: _432  and  _433
REMARK  178  A    between atoms: _432  and  _435
REMARK  179  A    between atoms: _435  and  _436
REMARK  180  A    between atoms: _439  and  _441
REMARK  181  A    between atoms: _441  and  _442
REMARK  182  A    between atoms: _441  and  _444
REMARK  183  A    between atoms: _444  and  _445
REMARK  184  A    between atoms: _445  and  _446
REMARK  185  A    between atoms: _448  and  _450
REMARK  186  A    between atoms: _450  and  _451
REMARK  187  A    between atoms: _450  and  _453
REMARK  188  A    between atoms: _453  and  _454
REMARK  189  A    between atoms: _458  and  _459
REMARK  190  A    between atoms: _464  and  _466
REMARK  191  A    between atoms: _466  and  _467
REMARK  192  A    between atoms: _466  and  _469
REMARK  193  A    between atoms: _469  and  _470
REMARK  194  A    between atoms: _473  and  _475
REMARK  195  A    between atoms: _475  and  _476
REMARK  196  A    between atoms: _475  and  _478
REMARK  197  A    between atoms: _478  and  _479
REMARK  198  A    between atoms: _484  and  _486
REMARK  199  A    between atoms: _486  and  _487
REMARK  200  A    between atoms: _486  and  _489
REMARK  201  A    between atoms: _489  and  _490
REMARK  202  A    between atoms: _493  and  _495
REMARK  203  A    between atoms: _495  and  _496
REMARK  204  A    between atoms: _495  and  _498
REMARK  205  A    between atoms: _498  and  _499
REMARK  206  A    between atoms: _505  and  _507
REMARK  207  A    between atoms: _507  and  _508
REMARK  208  A    between atoms: _510  and  _512
REMARK  209  A    between atoms: _512  and  _513
REMARK  210  A    between atoms: _512  and  _515
REMARK  211  A    between atoms: _515  and  _516
REMARK  212  A    between atoms: _516  and  _517
REMARK  213  A    between atoms: _517  and  _518
REMARK  214  A    between atoms: _527  and  _529
REMARK  215  A    between atoms: _529  and  _530
REMARK  216  A    between atoms: _529  and  _532
REMARK  217  A    between atoms: _532  and  _533
REMARK                            x       y       z     vdW  Elec       q    Type
REMARK                         _______ _______ _______ _____ _____    ______ ____
ROOT
ATOM      1  O   HOH     1      -4.671  24.100  30.632  0.00  0.00    +0.000 OA
ENDROOT
TORSDOF 0
REMARK  Name = ../refined-set-2016/1ivp/1ivp_pocket.pdb
REMARK  217 active torsions:
REMARK  status: ('A' for Active; 'I' for Inactive)
REMARK    1  A    between atoms: _1  and  _3
REMARK    2  A    between atoms: _3  and  _4
REMARK    3  A    between atoms: _3  and  _6
REMARK    4  A    between atoms: _6  and  _7
REMARK    5  A    between atoms: _7  and  _8
REMARK    6  A    between atoms: _8  and  _9
REMARK    7  A    between atoms: _18  and  _20
REMARK    8  A    between atoms: _20  and  _21
REMARK    9  A    between atoms: _20  and  _23
REMARK   10  A    between atoms: _23  and  _24
REMARK   11  A    between atoms: _27  and  _29
REMARK   12  A    between atoms: _29  and  _30
REMARK   13  A    between atoms: _29  and  _32
REMARK   14  A    between atoms: _32  and  _33
REMARK   15  A    between atoms: _36  and  _38
REMARK   16  A    between atoms: _38  and  _39
REMARK   17  A    between atoms: _38  and  _41
REMARK   18  A    between atoms: _41  and  _42
REMARK   19  A    between atoms: _45  and  _47
REMARK   20  A    between atoms: _47  and  _48
REMARK   21  A    between atoms: _47  and  _50
REMARK   22  A    between atoms: _50  and  _51
REMARK   23  A    between atoms: _54  and  _56
REMARK   24  A    between atoms: _56  and  _57
REMARK   25  A    between atoms: _59  and  _61
REMARK   26  A    between atoms: _61  and  _62
REMARK   27  A    between atoms: _65  and  _67
REMARK   28  A    between atoms: _67  and  _68
REMARK   29  A    between atoms: _67  and  _70
REMARK   30  A    between atoms: _70  and  _71
REMARK   31  A    between atoms: _74  and  _76
REMARK   32  A    between atoms: _76  and  _77
REMARK   33  A    between atoms: _76  and  _79
REMARK   34  A    between atoms: _79  and  _80
REMARK   35  A    between atoms: _83  and  _85
REMARK   36  A    between atoms: _85  and  _86
REMARK   37  A    between atoms: _85  and  _88
REMARK   38  A    between atoms: _88  and  _89
REMARK   39  A    between atoms: _91  and  _93
REMARK   40  A    between atoms: _93  and  _94
REMARK   41  A    between atoms: _93  and  _96
REMARK   42  A    between atoms: _96  and  _97
REMARK   43  A    between atoms: _100  and  _102
REMARK   44  A    between atoms: _102  and  _103
REMARK   45  A    between atoms: _102  and  _105
REMARK   46  A    between atoms: _105  and  _106
REMARK   47  A    between atoms: _109  and  _111
REMARK   48  A    between atoms: _111  and  _112
REMARK   49  A    between atoms: _111  and  _114
REMARK   50  A    between atoms: _117  and  _119
REMARK   51  A    between atoms: _119  and  _120
REMARK   52  A    between atoms: _122  and  _124
REMARK   53  A    between atoms: _124  and  _125
REMARK   54  A    between atoms: _129  and  _130
REMARK   55  A    between atoms: _129  and  _132
REMARK   56  A    between atoms: _132  and  _133
REMARK   57  A    between atoms: _136  and  _138
REMARK   58  A    between atoms: _138  and  _139
REMARK   59  A    between atoms: _141  and  _143
REMARK   60  A    between atoms: _143  and  _144
REMARK   61  A    between atoms: _146  and  _148
REMARK   62  A    between atoms: _148  and  _149
REMARK   63  A    between atoms: _148  and  _151
REMARK   64  A    between atoms: _151  and  _152
REMARK   65  A    between atoms: _158  and  _160
REMARK   66  A    between atoms: _160  and  _161
REMARK   67  A    between atoms: _160  and  _163
REMARK   68  A    between atoms: _163  and  _164
REMARK   69  A    between atoms: _167  and  _169
REMARK   70  A    between atoms: _169  and  _170
REMARK   71  A    between atoms: _169  and  _172
REMARK   72  A    between atoms: _172  and  _173
REMARK   73  A    between atoms: _173  and  _174
REMARK   74  A    between atoms: _176  and  _178
REMARK   75  A    between atoms: _178  and  _179
REMARK   76  A    between atoms: _178  and  _181
REMARK   77  A    between atoms: _181  and  _182
REMARK   78  A    between atoms: _185  and  _187
REMARK   79  A    between atoms: _187  and  _188
REMARK   80  A    between atoms: _187  and  _190
REMARK   81  A    between atoms: _190  and  _191
REMARK   82  A    between atoms: _195  and  _196
REMARK   83  A    between atoms: _201  and  _203
REMARK   84  A    between atoms: _203  and  _204
REMARK   85  A    between atoms: _203  and  _206
REMARK   86  A    between atoms: _206  and  _207
REMARK   87  A    between atoms: _210  and  _212
REMARK   88  A    between atoms: _212  and  _213
REMARK   89  A    between atoms: _212  and  _215
REMARK   90  A    between atoms: _215  and  _216
REMARK   91  A    between atoms: _221  and  _223
REMARK   92  A    between atoms: _223  and  _224
REMARK   93  A    between atoms: _223  and  _226
REMARK   94  A    between atoms: _226  and  _227
REMARK   95  A    between atoms: _230  and  _232
REMARK   96  A    between atoms: _232  and  _233
REMARK   97  A    between atoms: _232  and  _235
REMARK   98  A    between atoms: _235  and  _236
REMARK   99  A    between atoms: _242  and  _244
REMARK  100  A    between atoms: _244  and  _245
REMARK  101  A    between atoms: _247  and  _249
REMARK  102  A    between atoms: _249  and  _250
REMARK  103  A    between atoms: _249  and  _252
REMARK  104  A    between atoms: _252  and  _253
REMARK  105  A    between atoms: _253  and  _254
REMARK  106  A    between atoms: _254  and  _255
REMARK  107  A    between atoms: _264  and  _266
REMARK  108  A    between atoms: _266  and  _267
REMARK  109  A    between atoms: _266  and  _269
REMARK  110  A    between atoms: _269  and  _270
REMARK  111  A    between atoms: _270  and  _271
REMARK  112  A    between atoms: _271  and  _272
REMARK  113  A    between atoms: _281  and  _283
REMARK  114  A    between atoms: _283  and  _284
REMARK  115  A    between atoms: _283  and  _286
REMARK  116  A    between atoms: _286  and  _287
REMARK  117  A    between atoms: _290  and  _292
REMARK  118  A    between atoms: _292  and  _293
REMARK  119  A    between atoms: _292  and  _295
REMARK  120  A    between atoms: _295  and  _296
REMARK  121  A    between atoms: _299  and  _301
REMARK  122  A    between atoms: _301  and  _302
REMARK  123  A    between atoms: _301  and  _304
REMARK  124  A    between atoms: _304  and  _305
REMARK  125  A    between atoms: _308  and  _310
REMARK  126  A    between atoms: _310  and  _311
REMARK  127  A    between atoms: _310  and  _313
REMARK  128  A    between atoms: _313  and  _314
REMARK  129  A    between atoms: _317  and  _319
REMARK  130  A    between atoms: _319  and  _320
REMARK  131  A    between atoms: _322  and  _324
REMARK  132  A    between atoms: _324  and  _325
REMARK  133  A    between atoms: _328  and  _330
REMARK  134  A    between atoms: _330  and  _331
REMARK  135  A    between atoms: _330  and  _333
REMARK  136  A    between atoms: _333  and  _334
REMARK  137  A    between atoms: _337  and  _339
REMARK  138  A    between atoms: _339  and  _340
REMARK  139  A    between atoms: _339  and  _342
REMARK  140  A    between atoms: _342  and  _343
REMARK  141  A    between atoms: _346  and  _348
REMARK  142  A    between atoms: _348  and  _349
REMARK  143  A    between atoms: _348  and  _351
REMARK  144  A    between atoms: _351  and  _352
REMARK  145  A    between atoms: _354  and  _356
REMARK  146  A    between atoms: _356  and  _357
REMARK  147  A    between atoms: _356  and  _359
REMARK  148  A    between atoms: _359  and  _360
REMARK  149  A    between atoms: _363  and  _365
REMARK  150  A    between atoms: _365  and  _366
REMARK  151  A    between atoms: _365  and  _368
REMARK  152  A    between atoms: _368  and  _369
REMARK  153  A    between atoms: _372  and  _374
REMARK  154  A    between atoms: _374  and  _375
REMARK  155  A    between atoms: _374  and  _377
REMARK  156  A    between atoms: _380  and  _382
REMARK  157  A    between atoms: _382  and  _383
REMARK  158  A    between atoms: _385  and  _387
REMARK  159  A    between atoms: _387  and  _388
REMARK  160  A    between atoms: _390  and  _392
REMARK  161  A    between atoms: _392  and  _393
REMARK  162  A    between atoms: _392  and  _395
REMARK  163  A    between atoms: _395  and  _396
REMARK  164  A    between atoms: _399  and  _401
REMARK  165  A    between atoms: _401  and  _402
REMARK  166  A    between atoms: _404  and  _406
REMARK  167  A    between atoms: _406  and  _407
REMARK  168  A    between atoms: _409  and  _411
REMARK  169  A    between atoms: _411  and  _412
REMARK  170  A    between atoms: _411  and  _414
REMARK  171  A    between atoms: _414  and  _415
REMARK  172  A    between atoms: _421  and  _423
REMARK  173  A    between atoms: _423  and  _424
REMARK  174  A    between atoms: _423  and  _426
REMARK  175  A    between atoms: _426  and  _427
REMARK  176  A    between atoms: _430  and  _432
REMARK  177  A    between atoms: _432  and  _433
REMARK  178  A    between atoms: _432  and  _435
REMARK  179  A    between atoms: _435  and  _436
REMARK  180  A    between atoms: _439  and  _441
REMARK  181  A    between atoms: _441  and  _442
REMARK  182  A    between atoms: _441  and  _444
REMARK  183  A    between atoms: _444  and  _445
REMARK  184  A    between atoms: _445  and  _446
REMARK  185  A    between atoms: _448  and  _450
REMARK  186  A    between atoms: _450  and  _451
REMARK  187  A    between atoms: _450  and  _453
REMARK  188  A    between atoms: _453  and  _454
REMARK  189  A    between atoms: _458  and  _459
REMARK  190  A    between atoms: _464  and  _466
REMARK  191  A    between atoms: _466  and  _467
REMARK  192  A    between atoms: _466  and  _469
REMARK  193  A    between atoms: _469  and  _470
REMARK  194  A    between atoms: _473  and  _475
REMARK  195  A    between atoms: _475  and  _476
REMARK  196  A    between atoms: _475  and  _478
REMARK  197  A    between atoms: _478  and  _479
REMARK  198  A    between atoms: _484  and  _486
REMARK  199  A    between atoms: _486  and  _487
REMARK  200  A    between atoms: _486  and  _489
REMARK  201  A    between atoms: _489  and  _490
REMARK  202  A    between atoms: _493  and  _495
REMARK  203  A    between atoms: _495  and  _496
REMARK  204  A    between atoms: _495  and  _498
REMARK  205  A    between atoms: _498  and  _499
REMARK  206  A    between atoms: _505  and  _507
REMARK  207  A    between atoms: _507  and  _508
REMARK  208  A    between atoms: _510  and  _512
REMARK  209  A    between atoms: _512  and  _513
REMARK  210  A    between atoms: _512  and  _515
REMARK  211  A    between atoms: _515  and  _516
REMARK  212  A    between atoms: _516  and  _517
REMARK  213  A    between atoms: _517  and  _518
REMARK  214  A    between atoms: _527  and  _529
REMARK  215  A    between atoms: _529  and  _530
REMARK  216  A    between atoms: _529  and  _532
REMARK  217  A    between atoms: _532  and  _533
REMARK                            x       y       z     vdW  Elec       q    Type
REMARK                         _______ _______ _______ _____ _____    ______ ____
ROOT
ATOM      1  O   HOH     1      -8.804  22.000  29.192  0.00  0.00    +0.000 OA
ENDROOT
TORSDOF 0
REMARK  Name = ../refined-set-2016/1ivp/1ivp_pocket.pdb
REMARK  217 active torsions:
REMARK  status: ('A' for Active; 'I' for Inactive)
REMARK    1  A    between atoms: _1  and  _3
REMARK    2  A    between atoms: _3  and  _4
REMARK    3  A    between atoms: _3  and  _6
REMARK    4  A    between atoms: _6  and  _7
REMARK    5  A    between atoms: _7  and  _8
REMARK    6  A    between atoms: _8  and  _9
REMARK    7  A    between atoms: _18  and  _20
REMARK    8  A    between atoms: _20  and  _21
REMARK    9  A    between atoms: _20  and  _23
REMARK   10  A    between atoms: _23  and  _24
REMARK   11  A    between atoms: _27  and  _29
REMARK   12  A    between atoms: _29  and  _30
REMARK   13  A    between atoms: _29  and  _32
REMARK   14  A    between atoms: _32  and  _33
REMARK   15  A    between atoms: _36  and  _38
REMARK   16  A    between atoms: _38  and  _39
REMARK   17  A    between atoms: _38  and  _41
REMARK   18  A    between atoms: _41  and  _42
REMARK   19  A    between atoms: _45  and  _47
REMARK   20  A    between atoms: _47  and  _48
REMARK   21  A    between atoms: _47  and  _50
REMARK   22  A    between atoms: _50  and  _51
REMARK   23  A    between atoms: _54  and  _56
REMARK   24  A    between atoms: _56  and  _57
REMARK   25  A    between atoms: _59  and  _61
REMARK   26  A    between atoms: _61  and  _62
REMARK   27  A    between atoms: _65  and  _67
REMARK   28  A    between atoms: _67  and  _68
REMARK   29  A    between atoms: _67  and  _70
REMARK   30  A    between atoms: _70  and  _71
REMARK   31  A    between atoms: _74  and  _76
REMARK   32  A    between atoms: _76  and  _77
REMARK   33  A    between atoms: _76  and  _79
REMARK   34  A    between atoms: _79  and  _80
REMARK   35  A    between atoms: _83  and  _85
REMARK   36  A    between atoms: _85  and  _86
REMARK   37  A    between atoms: _85  and  _88
REMARK   38  A    between atoms: _88  and  _89
REMARK   39  A    between atoms: _91  and  _93
REMARK   40  A    between atoms: _93  and  _94
REMARK   41  A    between atoms: _93  and  _96
REMARK   42  A    between atoms: _96  and  _97
REMARK   43  A    between atoms: _100  and  _102
REMARK   44  A    between atoms: _102  and  _103
REMARK   45  A    between atoms: _102  and  _105
REMARK   46  A    between atoms: _105  and  _106
REMARK   47  A    between atoms: _109  and  _111
REMARK   48  A    between atoms: _111  and  _112
REMARK   49  A    between atoms: _111  and  _114
REMARK   50  A    between atoms: _117  and  _119
REMARK   51  A    between atoms: _119  and  _120
REMARK   52  A    between atoms: _122  and  _124
REMARK   53  A    between atoms: _124  and  _125
REMARK   54  A    between atoms: _129  and  _130
REMARK   55  A    between atoms: _129  and  _132
REMARK   56  A    between atoms: _132  and  _133
REMARK   57  A    between atoms: _136  and  _138
REMARK   58  A    between atoms: _138  and  _139
REMARK   59  A    between atoms: _141  and  _143
REMARK   60  A    between atoms: _143  and  _144
REMARK   61  A    between atoms: _146  and  _148
REMARK   62  A    between atoms: _148  and  _149
REMARK   63  A    between atoms: _148  and  _151
REMARK   64  A    between atoms: _151  and  _152
REMARK   65  A    between atoms: _158  and  _160
REMARK   66  A    between atoms: _160  and  _161
REMARK   67  A    between atoms: _160  and  _163
REMARK   68  A    between atoms: _163  and  _164
REMARK   69  A    between atoms: _167  and  _169
REMARK   70  A    between atoms: _169  and  _170
REMARK   71  A    between atoms: _169  and  _172
REMARK   72  A    between atoms: _172  and  _173
REMARK   73  A    between atoms: _173  and  _174
REMARK   74  A    between atoms: _176  and  _178
REMARK   75  A    between atoms: _178  and  _179
REMARK   76  A    between atoms: _178  and  _181
REMARK   77  A    between atoms: _181  and  _182
REMARK   78  A    between atoms: _185  and  _187
REMARK   79  A    between atoms: _187  and  _188
REMARK   80  A    between atoms: _187  and  _190
REMARK   81  A    between atoms: _190  and  _191
REMARK   82  A    between atoms: _195  and  _196
REMARK   83  A    between atoms: _201  and  _203
REMARK   84  A    between atoms: _203  and  _204
REMARK   85  A    between atoms: _203  and  _206
REMARK   86  A    between atoms: _206  and  _207
REMARK   87  A    between atoms: _210  and  _212
REMARK   88  A    between atoms: _212  and  _213
REMARK   89  A    between atoms: _212  and  _215
REMARK   90  A    between atoms: _215  and  _216
REMARK   91  A    between atoms: _221  and  _223
REMARK   92  A    between atoms: _223  and  _224
REMARK   93  A    between atoms: _223  and  _226
REMARK   94  A    between atoms: _226  and  _227
REMARK   95  A    between atoms: _230  and  _232
REMARK   96  A    between atoms: _232  and  _233
REMARK   97  A    between atoms: _232  and  _235
REMARK   98  A    between atoms: _235  and  _236
REMARK   99  A    between atoms: _242  and  _244
REMARK  100  A    between atoms: _244  and  _245
REMARK  101  A    between atoms: _247  and  _249
REMARK  102  A    between atoms: _249  and  _250
REMARK  103  A    between atoms: _249  and  _252
REMARK  104  A    between atoms: _252  and  _253
REMARK  105  A    between atoms: _253  and  _254
REMARK  106  A    between atoms: _254  and  _255
REMARK  107  A    between atoms: _264  and  _266
REMARK  108  A    between atoms: _266  and  _267
REMARK  109  A    between atoms: _266  and  _269
REMARK  110  A    between atoms: _269  and  _270
REMARK  111  A    between atoms: _270  and  _271
REMARK  112  A    between atoms: _271  and  _272
REMARK  113  A    between atoms: _281  and  _283
REMARK  114  A    between atoms: _283  and  _284
REMARK  115  A    between atoms: _283  and  _286
REMARK  116  A    between atoms: _286  and  _287
REMARK  117  A    between atoms: _290  and  _292
REMARK  118  A    between atoms: _292  and  _293
REMARK  119  A    between atoms: _292  and  _295
REMARK  120  A    between atoms: _295  and  _296
REMARK  121  A    between atoms: _299  and  _301
REMARK  122  A    between atoms: _301  and  _302
REMARK  123  A    between atoms: _301  and  _304
REMARK  124  A    between atoms: _304  and  _305
REMARK  125  A    between atoms: _308  and  _310
REMARK  126  A    between atoms: _310  and  _311
REMARK  127  A    between atoms: _310  and  _313
REMARK  128  A    between atoms: _313  and  _314
REMARK  129  A    between atoms: _317  and  _319
REMARK  130  A    between atoms: _319  and  _320
REMARK  131  A    between atoms: _322  and  _324
REMARK  132  A    between atoms: _324  and  _325
REMARK  133  A    between atoms: _328  and  _330
REMARK  134  A    between atoms: _330  and  _331
REMARK  135  A    between atoms: _330  and  _333
REMARK  136  A    between atoms: _333  and  _334
REMARK  137  A    between atoms: _337  and  _339
REMARK  138  A    between atoms: _339  and  _340
REMARK  139  A    between atoms: _339  and  _342
REMARK  140  A    between atoms: _342  and  _343
REMARK  141  A    between atoms: _346  and  _348
REMARK  142  A    between atoms: _348  and  _349
REMARK  143  A    between atoms: _348  and  _351
REMARK  144  A    between atoms: _351  and  _352
REMARK  145  A    between atoms: _354  and  _356
REMARK  146  A    between atoms: _356  and  _357
REMARK  147  A    between atoms: _356  and  _359
REMARK  148  A    between atoms: _359  and  _360
REMARK  149  A    between atoms: _363  and  _365
REMARK  150  A    between atoms: _365  and  _366
REMARK  151  A    between atoms: _365  and  _368
REMARK  152  A    between atoms: _368  and  _369
REMARK  153  A    between atoms: _372  and  _374
REMARK  154  A    between atoms: _374  and  _375
REMARK  155  A    between atoms: _374  and  _377
REMARK  156  A    between atoms: _380  and  _382
REMARK  157  A    between atoms: _382  and  _383
REMARK  158  A    between atoms: _385  and  _387
REMARK  159  A    between atoms: _387  and  _388
REMARK  160  A    between atoms: _390  and  _392
REMARK  161  A    between atoms: _392  and  _393
REMARK  162  A    between atoms: _392  and  _395
REMARK  163  A    between atoms: _395  and  _396
REMARK  164  A    between atoms: _399  and  _401
REMARK  165  A    between atoms: _401  and  _402
REMARK  166  A    between atoms: _404  and  _406
REMARK  167  A    between atoms: _406  and  _407
REMARK  168  A    between atoms: _409  and  _411
REMARK  169  A    between atoms: _411  and  _412
REMARK  170  A    between atoms: _411  and  _414
REMARK  171  A    between atoms: _414  and  _415
REMARK  172  A    between atoms: _421  and  _423
REMARK  173  A    between atoms: _423  and  _424
REMARK  174  A    between atoms: _423  and  _426
REMARK  175  A    between atoms: _426  and  _427
REMARK  176  A    between atoms: _430  and  _432
REMARK  177  A    between atoms: _432  and  _433
REMARK  178  A    between atoms: _432  and  _435
REMARK  179  A    between atoms: _435  and  _436
REMARK  180  A    between atoms: _439  and  _441
REMARK  181  A    between atoms: _441  and  _442
REMARK  182  A    between atoms: _441  and  _444
REMARK  183  A    between atoms: _444  and  _445
REMARK  184  A    between atoms: _445  and  _446
REMARK  185  A    between atoms: _448  and  _450
REMARK  186  A    between atoms: _450  and  _451
REMARK  187  A    between atoms: _450  and  _453
REMARK  188  A    between atoms: _453  and  _454
REMARK  189  A    between atoms: _458  and  _459
REMARK  190  A    between atoms: _464  and  _466
REMARK  191  A    between atoms: _466  and  _467
REMARK  192  A    between atoms: _466  and  _469
REMARK  193  A    between atoms: _469  and  _470
REMARK  194  A    between atoms: _473  and  _475
REMARK  195  A    between atoms: _475  and  _476
REMARK  196  A    between atoms: _475  and  _478
REMARK  197  A    between atoms: _478  and  _479
REMARK  198  A    between atoms: _484  and  _486
REMARK  199  A    between atoms: _486  and  _487
REMARK  200  A    between atoms: _486  and  _489
REMARK  201  A    between atoms: _489  and  _490
REMARK  202  A    between atoms: _493  and  _495
REMARK  203  A    between atoms: _495  and  _496
REMARK  204  A    between atoms: _495  and  _498
REMARK  205  A    between atoms: _498  and  _499
REMARK  206  A    between atoms: _505  and  _507
REMARK  207  A    between atoms: _507  and  _508
REMARK  208  A    between atoms: _510  and  _512
REMARK  209  A    between atoms: _512  and  _513
REMARK  210  A    between atoms: _512  and  _515
REMARK  211  A    between atoms: _515  and  _516
REMARK  212  A    between atoms: _516  and  _517
REMARK  213  A    between atoms: _517  and  _518
REMARK  214  A    between atoms: _527  and  _529
REMARK  215  A    between atoms: _529  and  _530
REMARK  216  A    between atoms: _529  and  _532
REMARK  217  A    between atoms: _532  and  _533
REMARK                            x       y       z     vdW  Elec       q    Type
REMARK                         _______ _______ _______ _____ _____    ______ ____
ROOT
ATOM      1  O   HOH     1      -5.749  22.199  26.306  0.00  0.00    +0.000 OA
ENDROOT
TORSDOF 0
REMARK  Name = ../refined-set-2016/1ivp/1ivp_pocket.pdb
REMARK  217 active torsions:
REMARK  status: ('A' for Active; 'I' for Inactive)
REMARK    1  A    between atoms: _1  and  _3
REMARK    2  A    between atoms: _3  and  _4
REMARK    3  A    between atoms: _3  and  _6
REMARK    4  A    between atoms: _6  and  _7
REMARK    5  A    between atoms: _7  and  _8
REMARK    6  A    between atoms: _8  and  _9
REMARK    7  A    between atoms: _18  and  _20
REMARK    8  A    between atoms: _20  and  _21
REMARK    9  A    between atoms: _20  and  _23
REMARK   10  A    between atoms: _23  and  _24
REMARK   11  A    between atoms: _27  and  _29
REMARK   12  A    between atoms: _29  and  _30
REMARK   13  A    between atoms: _29  and  _32
REMARK   14  A    between atoms: _32  and  _33
REMARK   15  A    between atoms: _36  and  _38
REMARK   16  A    between atoms: _38  and  _39
REMARK   17  A    between atoms: _38  and  _41
REMARK   18  A    between atoms: _41  and  _42
REMARK   19  A    between atoms: _45  and  _47
REMARK   20  A    between atoms: _47  and  _48
REMARK   21  A    between atoms: _47  and  _50
REMARK   22  A    between atoms: _50  and  _51
REMARK   23  A    between atoms: _54  and  _56
REMARK   24  A    between atoms: _56  and  _57
REMARK   25  A    between atoms: _59  and  _61
REMARK   26  A    between atoms: _61  and  _62
REMARK   27  A    between atoms: _65  and  _67
REMARK   28  A    between atoms: _67  and  _68
REMARK   29  A    between atoms: _67  and  _70
REMARK   30  A    between atoms: _70  and  _71
REMARK   31  A    between atoms: _74  and  _76
REMARK   32  A    between atoms: _76  and  _77
REMARK   33  A    between atoms: _76  and  _79
REMARK   34  A    between atoms: _79  and  _80
REMARK   35  A    between atoms: _83  and  _85
REMARK   36  A    between atoms: _85  and  _86
REMARK   37  A    between atoms: _85  and  _88
REMARK   38  A    between atoms: _88  and  _89
REMARK   39  A    between atoms: _91  and  _93
REMARK   40  A    between atoms: _93  and  _94
REMARK   41  A    between atoms: _93  and  _96
REMARK   42  A    between atoms: _96  and  _97
REMARK   43  A    between atoms: _100  and  _102
REMARK   44  A    between atoms: _102  and  _103
REMARK   45  A    between atoms: _102  and  _105
REMARK   46  A    between atoms: _105  and  _106
REMARK   47  A    between atoms: _109  and  _111
REMARK   48  A    between atoms: _111  and  _112
REMARK   49  A    between atoms: _111  and  _114
REMARK   50  A    between atoms: _117  and  _119
REMARK   51  A    between atoms: _119  and  _120
REMARK   52  A    between atoms: _122  and  _124
REMARK   53  A    between atoms: _124  and  _125
REMARK   54  A    between atoms: _129  and  _130
REMARK   55  A    between atoms: _129  and  _132
REMARK   56  A    between atoms: _132  and  _133
REMARK   57  A    between atoms: _136  and  _138
REMARK   58  A    between atoms: _138  and  _139
REMARK   59  A    between atoms: _141  and  _143
REMARK   60  A    between atoms: _143  and  _144
REMARK   61  A    between atoms: _146  and  _148
REMARK   62  A    between atoms: _148  and  _149
REMARK   63  A    between atoms: _148  and  _151
REMARK   64  A    between atoms: _151  and  _152
REMARK   65  A    between atoms: _158  and  _160
REMARK   66  A    between atoms: _160  and  _161
REMARK   67  A    between atoms: _160  and  _163
REMARK   68  A    between atoms: _163  and  _164
REMARK   69  A    between atoms: _167  and  _169
REMARK   70  A    between atoms: _169  and  _170
REMARK   71  A    between atoms: _169  and  _172
REMARK   72  A    between atoms: _172  and  _173
REMARK   73  A    between atoms: _173  and  _174
REMARK   74  A    between atoms: _176  and  _178
REMARK   75  A    between atoms: _178  and  _179
REMARK   76  A    between atoms: _178  and  _181
REMARK   77  A    between atoms: _181  and  _182
REMARK   78  A    between atoms: _185  and  _187
REMARK   79  A    between atoms: _187  and  _188
REMARK   80  A    between atoms: _187  and  _190
REMARK   81  A    between atoms: _190  and  _191
REMARK   82  A    between atoms: _195  and  _196
REMARK   83  A    between atoms: _201  and  _203
REMARK   84  A    between atoms: _203  and  _204
REMARK   85  A    between atoms: _203  and  _206
REMARK   86  A    between atoms: _206  and  _207
REMARK   87  A    between atoms: _210  and  _212
REMARK   88  A    between atoms: _212  and  _213
REMARK   89  A    between atoms: _212  and  _215
REMARK   90  A    between atoms: _215  and  _216
REMARK   91  A    between atoms: _221  and  _223
REMARK   92  A    between atoms: _223  and  _224
REMARK   93  A    between atoms: _223  and  _226
REMARK   94  A    between atoms: _226  and  _227
REMARK   95  A    between atoms: _230  and  _232
REMARK   96  A    between atoms: _232  and  _233
REMARK   97  A    between atoms: _232  and  _235
REMARK   98  A    between atoms: _235  and  _236
REMARK   99  A    between atoms: _242  and  _244
REMARK  100  A    between atoms: _244  and  _245
REMARK  101  A    between atoms: _247  and  _249
REMARK  102  A    between atoms: _249  and  _250
REMARK  103  A    between atoms: _249  and  _252
REMARK  104  A    between atoms: _252  and  _253
REMARK  105  A    between atoms: _253  and  _254
REMARK  106  A    between atoms: _254  and  _255
REMARK  107  A    between atoms: _264  and  _266
REMARK  108  A    between atoms: _266  and  _267
REMARK  109  A    between atoms: _266  and  _269
REMARK  110  A    between atoms: _269  and  _270
REMARK  111  A    between atoms: _270  and  _271
REMARK  112  A    between atoms: _271  and  _272
REMARK  113  A    between atoms: _281  and  _283
REMARK  114  A    between atoms: _283  and  _284
REMARK  115  A    between atoms: _283  and  _286
REMARK  116  A    between atoms: _286  and  _287
REMARK  117  A    between atoms: _290  and  _292
REMARK  118  A    between atoms: _292  and  _293
REMARK  119  A    between atoms: _292  and  _295
REMARK  120  A    between atoms: _295  and  _296
REMARK  121  A    between atoms: _299  and  _301
REMARK  122  A    between atoms: _301  and  _302
REMARK  123  A    between atoms: _301  and  _304
REMARK  124  A    between atoms: _304  and  _305
REMARK  125  A    between atoms: _308  and  _310
REMARK  126  A    between atoms: _310  and  _311
REMARK  127  A    between atoms: _310  and  _313
REMARK  128  A    between atoms: _313  and  _314
REMARK  129  A    between atoms: _317  and  _319
REMARK  130  A    between atoms: _319  and  _320
REMARK  131  A    between atoms: _322  and  _324
REMARK  132  A    between atoms: _324  and  _325
REMARK  133  A    between atoms: _328  and  _330
REMARK  134  A    between atoms: _330  and  _331
REMARK  135  A    between atoms: _330  and  _333
REMARK  136  A    between atoms: _333  and  _334
REMARK  137  A    between atoms: _337  and  _339
REMARK  138  A    between atoms: _339  and  _340
REMARK  139  A    between atoms: _339  and  _342
REMARK  140  A    between atoms: _342  and  _343
REMARK  141  A    between atoms: _346  and  _348
REMARK  142  A    between atoms: _348  and  _349
REMARK  143  A    between atoms: _348  and  _351
REMARK  144  A    between atoms: _351  and  _352
REMARK  145  A    between atoms: _354  and  _356
REMARK  146  A    between atoms: _356  and  _357
REMARK  147  A    between atoms: _356  and  _359
REMARK  148  A    between atoms: _359  and  _360
REMARK  149  A    between atoms: _363  and  _365
REMARK  150  A    between atoms: _365  and  _366
REMARK  151  A    between atoms: _365  and  _368
REMARK  152  A    between atoms: _368  and  _369
REMARK  153  A    between atoms: _372  and  _374
REMARK  154  A    between atoms: _374  and  _375
REMARK  155  A    between atoms: _374  and  _377
REMARK  156  A    between atoms: _380  and  _382
REMARK  157  A    between atoms: _382  and  _383
REMARK  158  A    between atoms: _385  and  _387
REMARK  159  A    between atoms: _387  and  _388
REMARK  160  A    between atoms: _390  and  _392
REMARK  161  A    between atoms: _392  and  _393
REMARK  162  A    between atoms: _392  and  _395
REMARK  163  A    between atoms: _395  and  _396
REMARK  164  A    between atoms: _399  and  _401
REMARK  165  A    between atoms: _401  and  _402
REMARK  166  A    between atoms: _404  and  _406
REMARK  167  A    between atoms: _406  and  _407
REMARK  168  A    between atoms: _409  and  _411
REMARK  169  A    between atoms: _411  and  _412
REMARK  170  A    between atoms: _411  and  _414
REMARK  171  A    between atoms: _414  and  _415
REMARK  172  A    between atoms: _421  and  _423
REMARK  173  A    between atoms: _423  and  _424
REMARK  174  A    between atoms: _423  and  _426
REMARK  175  A    between atoms: _426  and  _427
REMARK  176  A    between atoms: _430  and  _432
REMARK  177  A    between atoms: _432  and  _433
REMARK  178  A    between atoms: _432  and  _435
REMARK  179  A    between atoms: _435  and  _436
REMARK  180  A    between atoms: _439  and  _441
REMARK  181  A    between atoms: _441  and  _442
REMARK  182  A    between atoms: _441  and  _444
REMARK  183  A    between atoms: _444  and  _445
REMARK  184  A    between atoms: _445  and  _446
REMARK  185  A    between atoms: _448  and  _450
REMARK  186  A    between atoms: _450  and  _451
REMARK  187  A    between atoms: _450  and  _453
REMARK  188  A    between atoms: _453  and  _454
REMARK  189  A    between atoms: _458  and  _459
REMARK  190  A    between atoms: _464  and  _466
REMARK  191  A    between atoms: _466  and  _467
REMARK  192  A    between atoms: _466  and  _469
REMARK  193  A    between atoms: _469  and  _470
REMARK  194  A    between atoms: _473  and  _475
REMARK  195  A    between atoms: _475  and  _476
REMARK  196  A    between atoms: _475  and  _478
REMARK  197  A    between atoms: _478  and  _479
REMARK  198  A    between atoms: _484  and  _486
REMARK  199  A    between atoms: _486  and  _487
REMARK  200  A    between atoms: _486  and  _489
REMARK  201  A    between atoms: _489  and  _490
REMARK  202  A    between atoms: _493  and  _495
REMARK  203  A    between atoms: _495  and  _496
REMARK  204  A    between atoms: _495  and  _498
REMARK  205  A    between atoms: _498  and  _499
REMARK  206  A    between atoms: _505  and  _507
REMARK  207  A    between atoms: _507  and  _508
REMARK  208  A    between atoms: _510  and  _512
REMARK  209  A    between atoms: _512  and  _513
REMARK  210  A    between atoms: _512  and  _515
REMARK  211  A    between atoms: _515  and  _516
REMARK  212  A    between atoms: _516  and  _517
REMARK  213  A    between atoms: _517  and  _518
REMARK  214  A    between atoms: _527  and  _529
REMARK  215  A    between atoms: _529  and  _530
REMARK  216  A    between atoms: _529  and  _532
REMARK  217  A    between atoms: _532  and  _533
REMARK                            x       y       z     vdW  Elec       q    Type
REMARK                         _______ _______ _______ _____ _____    ______ ____
ROOT
ATOM      1  O   HOH     1      -6.413  27.088  25.147  0.00  0.00    +0.000 OA
ENDROOT
TORSDOF 0
REMARK  Name = ../refined-set-2016/1ivp/1ivp_pocket.pdb
REMARK  217 active torsions:
REMARK  status: ('A' for Active; 'I' for Inactive)
REMARK    1  A    between atoms: _1  and  _3
REMARK    2  A    between atoms: _3  and  _4
REMARK    3  A    between atoms: _3  and  _6
REMARK    4  A    between atoms: _6  and  _7
REMARK    5  A    between atoms: _7  and  _8
REMARK    6  A    between atoms: _8  and  _9
REMARK    7  A    between atoms: _18  and  _20
REMARK    8  A    between atoms: _20  and  _21
REMARK    9  A    between atoms: _20  and  _23
REMARK   10  A    between atoms: _23  and  _24
REMARK   11  A    between atoms: _27  and  _29
REMARK   12  A    between atoms: _29  and  _30
REMARK   13  A    between atoms: _29  and  _32
REMARK   14  A    between atoms: _32  and  _33
REMARK   15  A    between atoms: _36  and  _38
REMARK   16  A    between atoms: _38  and  _39
REMARK   17  A    between atoms: _38  and  _41
REMARK   18  A    between atoms: _41  and  _42
REMARK   19  A    between atoms: _45  and  _47
REMARK   20  A    between atoms: _47  and  _48
REMARK   21  A    between atoms: _47  and  _50
REMARK   22  A    between atoms: _50  and  _51
REMARK   23  A    between atoms: _54  and  _56
REMARK   24  A    between atoms: _56  and  _57
REMARK   25  A    between atoms: _59  and  _61
REMARK   26  A    between atoms: _61  and  _62
REMARK   27  A    between atoms: _65  and  _67
REMARK   28  A    between atoms: _67  and  _68
REMARK   29  A    between atoms: _67  and  _70
REMARK   30  A    between atoms: _70  and  _71
REMARK   31  A    between atoms: _74  and  _76
REMARK   32  A    between atoms: _76  and  _77
REMARK   33  A    between atoms: _76  and  _79
REMARK   34  A    between atoms: _79  and  _80
REMARK   35  A    between atoms: _83  and  _85
REMARK   36  A    between atoms: _85  and  _86
REMARK   37  A    between atoms: _85  and  _88
REMARK   38  A    between atoms: _88  and  _89
REMARK   39  A    between atoms: _91  and  _93
REMARK   40  A    between atoms: _93  and  _94
REMARK   41  A    between atoms: _93  and  _96
REMARK   42  A    between atoms: _96  and  _97
REMARK   43  A    between atoms: _100  and  _102
REMARK   44  A    between atoms: _102  and  _103
REMARK   45  A    between atoms: _102  and  _105
REMARK   46  A    between atoms: _105  and  _106
REMARK   47  A    between atoms: _109  and  _111
REMARK   48  A    between atoms: _111  and  _112
REMARK   49  A    between atoms: _111  and  _114
REMARK   50  A    between atoms: _117  and  _119
REMARK   51  A    between atoms: _119  and  _120
REMARK   52  A    between atoms: _122  and  _124
REMARK   53  A    between atoms: _124  and  _125
REMARK   54  A    between atoms: _129  and  _130
REMARK   55  A    between atoms: _129  and  _132
REMARK   56  A    between atoms: _132  and  _133
REMARK   57  A    between atoms: _136  and  _138
REMARK   58  A    between atoms: _138  and  _139
REMARK   59  A    between atoms: _141  and  _143
REMARK   60  A    between atoms: _143  and  _144
REMARK   61  A    between atoms: _146  and  _148
REMARK   62  A    between atoms: _148  and  _149
REMARK   63  A    between atoms: _148  and  _151
REMARK   64  A    between atoms: _151  and  _152
REMARK   65  A    between atoms: _158  and  _160
REMARK   66  A    between atoms: _160  and  _161
REMARK   67  A    between atoms: _160  and  _163
REMARK   68  A    between atoms: _163  and  _164
REMARK   69  A    between atoms: _167  and  _169
REMARK   70  A    between atoms: _169  and  _170
REMARK   71  A    between atoms: _169  and  _172
REMARK   72  A    between atoms: _172  and  _173
REMARK   73  A    between atoms: _173  and  _174
REMARK   74  A    between atoms: _176  and  _178
REMARK   75  A    between atoms: _178  and  _179
REMARK   76  A    between atoms: _178  and  _181
REMARK   77  A    between atoms: _181  and  _182
REMARK   78  A    between atoms: _185  and  _187
REMARK   79  A    between atoms: _187  and  _188
REMARK   80  A    between atoms: _187  and  _190
REMARK   81  A    between atoms: _190  and  _191
REMARK   82  A    between atoms: _195  and  _196
REMARK   83  A    between atoms: _201  and  _203
REMARK   84  A    between atoms: _203  and  _204
REMARK   85  A    between atoms: _203  and  _206
REMARK   86  A    between atoms: _206  and  _207
REMARK   87  A    between atoms: _210  and  _212
REMARK   88  A    between atoms: _212  and  _213
REMARK   89  A    between atoms: _212  and  _215
REMARK   90  A    between atoms: _215  and  _216
REMARK   91  A    between atoms: _221  and  _223
REMARK   92  A    between atoms: _223  and  _224
REMARK   93  A    between atoms: _223  and  _226
REMARK   94  A    between atoms: _226  and  _227
REMARK   95  A    between atoms: _230  and  _232
REMARK   96  A    between atoms: _232  and  _233
REMARK   97  A    between atoms: _232  and  _235
REMARK   98  A    between atoms: _235  and  _236
REMARK   99  A    between atoms: _242  and  _244
REMARK  100  A    between atoms: _244  and  _245
REMARK  101  A    between atoms: _247  and  _249
REMARK  102  A    between atoms: _249  and  _250
REMARK  103  A    between atoms: _249  and  _252
REMARK  104  A    between atoms: _252  and  _253
REMARK  105  A    between atoms: _253  and  _254
REMARK  106  A    between atoms: _254  and  _255
REMARK  107  A    between atoms: _264  and  _266
REMARK  108  A    between atoms: _266  and  _267
REMARK  109  A    between atoms: _266  and  _269
REMARK  110  A    between atoms: _269  and  _270
REMARK  111  A    between atoms: _270  and  _271
REMARK  112  A    between atoms: _271  and  _272
REMARK  113  A    between atoms: _281  and  _283
REMARK  114  A    between atoms: _283  and  _284
REMARK  115  A    between atoms: _283  and  _286
REMARK  116  A    between atoms: _286  and  _287
REMARK  117  A    between atoms: _290  and  _292
REMARK  118  A    between atoms: _292  and  _293
REMARK  119  A    between atoms: _292  and  _295
REMARK  120  A    between atoms: _295  and  _296
REMARK  121  A    between atoms: _299  and  _301
REMARK  122  A    between atoms: _301  and  _302
REMARK  123  A    between atoms: _301  and  _304
REMARK  124  A    between atoms: _304  and  _305
REMARK  125  A    between atoms: _308  and  _310
REMARK  126  A    between atoms: _310  and  _311
REMARK  127  A    between atoms: _310  and  _313
REMARK  128  A    between atoms: _313  and  _314
REMARK  129  A    between atoms: _317  and  _319
REMARK  130  A    between atoms: _319  and  _320
REMARK  131  A    between atoms: _322  and  _324
REMARK  132  A    between atoms: _324  and  _325
REMARK  133  A    between atoms: _328  and  _330
REMARK  134  A    between atoms: _330  and  _331
REMARK  135  A    between atoms: _330  and  _333
REMARK  136  A    between atoms: _333  and  _334
REMARK  137  A    between atoms: _337  and  _339
REMARK  138  A    between atoms: _339  and  _340
REMARK  139  A    between atoms: _339  and  _342
REMARK  140  A    between atoms: _342  and  _343
REMARK  141  A    between atoms: _346  and  _348
REMARK  142  A    between atoms: _348  and  _349
REMARK  143  A    between atoms: _348  and  _351
REMARK  144  A    between atoms: _351  and  _352
REMARK  145  A    between atoms: _354  and  _356
REMARK  146  A    between atoms: _356  and  _357
REMARK  147  A    between atoms: _356  and  _359
REMARK  148  A    between atoms: _359  and  _360
REMARK  149  A    between atoms: _363  and  _365
REMARK  150  A    between atoms: _365  and  _366
REMARK  151  A    between atoms: _365  and  _368
REMARK  152  A    between atoms: _368  and  _369
REMARK  153  A    between atoms: _372  and  _374
REMARK  154  A    between atoms: _374  and  _375
REMARK  155  A    between atoms: _374  and  _377
REMARK  156  A    between atoms: _380  and  _382
REMARK  157  A    between atoms: _382  and  _383
REMARK  158  A    between atoms: _385  and  _387
REMARK  159  A    between atoms: _387  and  _388
REMARK  160  A    between atoms: _390  and  _392
REMARK  161  A    between atoms: _392  and  _393
REMARK  162  A    between atoms: _392  and  _395
REMARK  163  A    between atoms: _395  and  _396
REMARK  164  A    between atoms: _399  and  _401
REMARK  165  A    between atoms: _401  and  _402
REMARK  166  A    between atoms: _404  and  _406
REMARK  167  A    between atoms: _406  and  _407
REMARK  168  A    between atoms: _409  and  _411
REMARK  169  A    between atoms: _411  and  _412
REMARK  170  A    between atoms: _411  and  _414
REMARK  171  A    between atoms: _414  and  _415
REMARK  172  A    between atoms: _421  and  _423
REMARK  173  A    between atoms: _423  and  _424
REMARK  174  A    between atoms: _423  and  _426
REMARK  175  A    between atoms: _426  and  _427
REMARK  176  A    between atoms: _430  and  _432
REMARK  177  A    between atoms: _432  and  _433
REMARK  178  A    between atoms: _432  and  _435
REMARK  179  A    between atoms: _435  and  _436
REMARK  180  A    between atoms: _439  and  _441
REMARK  181  A    between atoms: _441  and  _442
REMARK  182  A    between atoms: _441  and  _444
REMARK  183  A    between atoms: _444  and  _445
REMARK  184  A    between atoms: _445  and  _446
REMARK  185  A    between atoms: _448  and  _450
REMARK  186  A    between atoms: _450  and  _451
REMARK  187  A    between atoms: _450  and  _453
REMARK  188  A    between atoms: _453  and  _454
REMARK  189  A    between atoms: _458  and  _459
REMARK  190  A    between atoms: _464  and  _466
REMARK  191  A    between atoms: _466  and  _467
REMARK  192  A    between atoms: _466  and  _469
REMARK  193  A    between atoms: _469  and  _470
REMARK  194  A    between atoms: _473  and  _475
REMARK  195  A    between atoms: _475  and  _476
REMARK  196  A    between atoms: _475  and  _478
REMARK  197  A    between atoms: _478  and  _479
REMARK  198  A    between atoms: _484  and  _486
REMARK  199  A    between atoms: _486  and  _487
REMARK  200  A    between atoms: _486  and  _489
REMARK  201  A    between atoms: _489  and  _490
REMARK  202  A    between atoms: _493  and  _495
REMARK  203  A    between atoms: _495  and  _496
REMARK  204  A    between atoms: _495  and  _498
REMARK  205  A    between atoms: _498  and  _499
REMARK  206  A    between atoms: _505  and  _507
REMARK  207  A    between atoms: _507  and  _508
REMARK  208  A    between atoms: _510  and  _512
REMARK  209  A    between atoms: _512  and  _513
REMARK  210  A    between atoms: _512  and  _515
REMARK  211  A    between atoms: _515  and  _516
REMARK  212  A    between atoms: _516  and  _517
REMARK  213  A    between atoms: _517  and  _518
REMARK  214  A    between atoms: _527  and  _529
REMARK  215  A    between atoms: _529  and  _530
REMARK  216  A    between atoms: _529  and  _532
REMARK  217  A    between atoms: _532  and  _533
REMARK                            x       y       z     vdW  Elec       q    Type
REMARK                         _______ _______ _______ _____ _____    ______ ____
ROOT
ATOM      1  O   HOH     1       4.032  14.193   7.806  0.00  0.00    +0.000 OA
ENDROOT
TORSDOF 0
REMARK  Name = ../refined-set-2016/1ivp/1ivp_pocket.pdb
REMARK  217 active torsions:
REMARK  status: ('A' for Active; 'I' for Inactive)
REMARK    1  A    between atoms: _1  and  _3
REMARK    2  A    between atoms: _3  and  _4
REMARK    3  A    between atoms: _3  and  _6
REMARK    4  A    between atoms: _6  and  _7
REMARK    5  A    between atoms: _7  and  _8
REMARK    6  A    between atoms: _8  and  _9
REMARK    7  A    between atoms: _18  and  _20
REMARK    8  A    between atoms: _20  and  _21
REMARK    9  A    between atoms: _20  and  _23
REMARK   10  A    between atoms: _23  and  _24
REMARK   11  A    between atoms: _27  and  _29
REMARK   12  A    between atoms: _29  and  _30
REMARK   13  A    between atoms: _29  and  _32
REMARK   14  A    between atoms: _32  and  _33
REMARK   15  A    between atoms: _36  and  _38
REMARK   16  A    between atoms: _38  and  _39
REMARK   17  A    between atoms: _38  and  _41
REMARK   18  A    between atoms: _41  and  _42
REMARK   19  A    between atoms: _45  and  _47
REMARK   20  A    between atoms: _47  and  _48
REMARK   21  A    between atoms: _47  and  _50
REMARK   22  A    between atoms: _50  and  _51
REMARK   23  A    between atoms: _54  and  _56
REMARK   24  A    between atoms: _56  and  _57
REMARK   25  A    between atoms: _59  and  _61
REMARK   26  A    between atoms: _61  and  _62
REMARK   27  A    between atoms: _65  and  _67
REMARK   28  A    between atoms: _67  and  _68
REMARK   29  A    between atoms: _67  and  _70
REMARK   30  A    between atoms: _70  and  _71
REMARK   31  A    between atoms: _74  and  _76
REMARK   32  A    between atoms: _76  and  _77
REMARK   33  A    between atoms: _76  and  _79
REMARK   34  A    between atoms: _79  and  _80
REMARK   35  A    between atoms: _83  and  _85
REMARK   36  A    between atoms: _85  and  _86
REMARK   37  A    between atoms: _85  and  _88
REMARK   38  A    between atoms: _88  and  _89
REMARK   39  A    between atoms: _91  and  _93
REMARK   40  A    between atoms: _93  and  _94
REMARK   41  A    between atoms: _93  and  _96
REMARK   42  A    between atoms: _96  and  _97
REMARK   43  A    between atoms: _100  and  _102
REMARK   44  A    between atoms: _102  and  _103
REMARK   45  A    between atoms: _102  and  _105
REMARK   46  A    between atoms: _105  and  _106
REMARK   47  A    between atoms: _109  and  _111
REMARK   48  A    between atoms: _111  and  _112
REMARK   49  A    between atoms: _111  and  _114
REMARK   50  A    between atoms: _117  and  _119
REMARK   51  A    between atoms: _119  and  _120
REMARK   52  A    between atoms: _122  and  _124
REMARK   53  A    between atoms: _124  and  _125
REMARK   54  A    between atoms: _129  and  _130
REMARK   55  A    between atoms: _129  and  _132
REMARK   56  A    between atoms: _132  and  _133
REMARK   57  A    between atoms: _136  and  _138
REMARK   58  A    between atoms: _138  and  _139
REMARK   59  A    between atoms: _141  and  _143
REMARK   60  A    between atoms: _143  and  _144
REMARK   61  A    between atoms: _146  and  _148
REMARK   62  A    between atoms: _148  and  _149
REMARK   63  A    between atoms: _148  and  _151
REMARK   64  A    between atoms: _151  and  _152
REMARK   65  A    between atoms: _158  and  _160
REMARK   66  A    between atoms: _160  and  _161
REMARK   67  A    between atoms: _160  and  _163
REMARK   68  A    between atoms: _163  and  _164
REMARK   69  A    between atoms: _167  and  _169
REMARK   70  A    between atoms: _169  and  _170
REMARK   71  A    between atoms: _169  and  _172
REMARK   72  A    between atoms: _172  and  _173
REMARK   73  A    between atoms: _173  and  _174
REMARK   74  A    between atoms: _176  and  _178
REMARK   75  A    between atoms: _178  and  _179
REMARK   76  A    between atoms: _178  and  _181
REMARK   77  A    between atoms: _181  and  _182
REMARK   78  A    between atoms: _185  and  _187
REMARK   79  A    between atoms: _187  and  _188
REMARK   80  A    between atoms: _187  and  _190
REMARK   81  A    between atoms: _190  and  _191
REMARK   82  A    between atoms: _195  and  _196
REMARK   83  A    between atoms: _201  and  _203
REMARK   84  A    between atoms: _203  and  _204
REMARK   85  A    between atoms: _203  and  _206
REMARK   86  A    between atoms: _206  and  _207
REMARK   87  A    between atoms: _210  and  _212
REMARK   88  A    between atoms: _212  and  _213
REMARK   89  A    between atoms: _212  and  _215
REMARK   90  A    between atoms: _215  and  _216
REMARK   91  A    between atoms: _221  and  _223
REMARK   92  A    between atoms: _223  and  _224
REMARK   93  A    between atoms: _223  and  _226
REMARK   94  A    between atoms: _226  and  _227
REMARK   95  A    between atoms: _230  and  _232
REMARK   96  A    between atoms: _232  and  _233
REMARK   97  A    between atoms: _232  and  _235
REMARK   98  A    between atoms: _235  and  _236
REMARK   99  A    between atoms: _242  and  _244
REMARK  100  A    between atoms: _244  and  _245
REMARK  101  A    between atoms: _247  and  _249
REMARK  102  A    between atoms: _249  and  _250
REMARK  103  A    between atoms: _249  and  _252
REMARK  104  A    between atoms: _252  and  _253
REMARK  105  A    between atoms: _253  and  _254
REMARK  106  A    between atoms: _254  and  _255
REMARK  107  A    between atoms: _264  and  _266
REMARK  108  A    between atoms: _266  and  _267
REMARK  109  A    between atoms: _266  and  _269
REMARK  110  A    between atoms: _269  and  _270
REMARK  111  A    between atoms: _270  and  _271
REMARK  112  A    between atoms: _271  and  _272
REMARK  113  A    between atoms: _281  and  _283
REMARK  114  A    between atoms: _283  and  _284
REMARK  115  A    between atoms: _283  and  _286
REMARK  116  A    between atoms: _286  and  _287
REMARK  117  A    between atoms: _290  and  _292
REMARK  118  A    between atoms: _292  and  _293
REMARK  119  A    between atoms: _292  and  _295
REMARK  120  A    between atoms: _295  and  _296
REMARK  121  A    between atoms: _299  and  _301
REMARK  122  A    between atoms: _301  and  _302
REMARK  123  A    between atoms: _301  and  _304
REMARK  124  A    between atoms: _304  and  _305
REMARK  125  A    between atoms: _308  and  _310
REMARK  126  A    between atoms: _310  and  _311
REMARK  127  A    between atoms: _310  and  _313
REMARK  128  A    between atoms: _313  and  _314
REMARK  129  A    between atoms: _317  and  _319
REMARK  130  A    between atoms: _319  and  _320
REMARK  131  A    between atoms: _322  and  _324
REMARK  132  A    between atoms: _324  and  _325
REMARK  133  A    between atoms: _328  and  _330
REMARK  134  A    between atoms: _330  and  _331
REMARK  135  A    between atoms: _330  and  _333
REMARK  136  A    between atoms: _333  and  _334
REMARK  137  A    between atoms: _337  and  _339
REMARK  138  A    between atoms: _339  and  _340
REMARK  139  A    between atoms: _339  and  _342
REMARK  140  A    between atoms: _342  and  _343
REMARK  141  A    between atoms: _346  and  _348
REMARK  142  A    between atoms: _348  and  _349
REMARK  143  A    between atoms: _348  and  _351
REMARK  144  A    between atoms: _351  and  _352
REMARK  145  A    between atoms: _354  and  _356
REMARK  146  A    between atoms: _356  and  _357
REMARK  147  A    between atoms: _356  and  _359
REMARK  148  A    between atoms: _359  and  _360
REMARK  149  A    between atoms: _363  and  _365
REMARK  150  A    between atoms: _365  and  _366
REMARK  151  A    between atoms: _365  and  _368
REMARK  152  A    between atoms: _368  and  _369
REMARK  153  A    between atoms: _372  and  _374
REMARK  154  A    between atoms: _374  and  _375
REMARK  155  A    between atoms: _374  and  _377
REMARK  156  A    between atoms: _380  and  _382
REMARK  157  A    between atoms: _382  and  _383
REMARK  158  A    between atoms: _385  and  _387
REMARK  159  A    between atoms: _387  and  _388
REMARK  160  A    between atoms: _390  and  _392
REMARK  161  A    between atoms: _392  and  _393
REMARK  162  A    between atoms: _392  and  _395
REMARK  163  A    between atoms: _395  and  _396
REMARK  164  A    between atoms: _399  and  _401
REMARK  165  A    between atoms: _401  and  _402
REMARK  166  A    between atoms: _404  and  _406
REMARK  167  A    between atoms: _406  and  _407
REMARK  168  A    between atoms: _409  and  _411
REMARK  169  A    between atoms: _411  and  _412
REMARK  170  A    between atoms: _411  and  _414
REMARK  171  A    between atoms: _414  and  _415
REMARK  172  A    between atoms: _421  and  _423
REMARK  173  A    between atoms: _423  and  _424
REMARK  174  A    between atoms: _423  and  _426
REMARK  175  A    between atoms: _426  and  _427
REMARK  176  A    between atoms: _430  and  _432
REMARK  177  A    between atoms: _432  and  _433
REMARK  178  A    between atoms: _432  and  _435
REMARK  179  A    between atoms: _435  and  _436
REMARK  180  A    between atoms: _439  and  _441
REMARK  181  A    between atoms: _441  and  _442
REMARK  182  A    between atoms: _441  and  _444
REMARK  183  A    between atoms: _444  and  _445
REMARK  184  A    between atoms: _445  and  _446
REMARK  185  A    between atoms: _448  and  _450
REMARK  186  A    between atoms: _450  and  _451
REMARK  187  A    between atoms: _450  and  _453
REMARK  188  A    between atoms: _453  and  _454
REMARK  189  A    between atoms: _458  and  _459
REMARK  190  A    between atoms: _464  and  _466
REMARK  191  A    between atoms: _466  and  _467
REMARK  192  A    between atoms: _466  and  _469
REMARK  193  A    between atoms: _469  and  _470
REMARK  194  A    between atoms: _473  and  _475
REMARK  195  A    between atoms: _475  and  _476
REMARK  196  A    between atoms: _475  and  _478
REMARK  197  A    between atoms: _478  and  _479
REMARK  198  A    between atoms: _484  and  _486
REMARK  199  A    between atoms: _486  and  _487
REMARK  200  A    between atoms: _486  and  _489
REMARK  201  A    between atoms: _489  and  _490
REMARK  202  A    between atoms: _493  and  _495
REMARK  203  A    between atoms: _495  and  _496
REMARK  204  A    between atoms: _495  and  _498
REMARK  205  A    between atoms: _498  and  _499
REMARK  206  A    between atoms: _505  and  _507
REMARK  207  A    between atoms: _507  and  _508
REMARK  208  A    between atoms: _510  and  _512
REMARK  209  A    between atoms: _512  and  _513
REMARK  210  A    between atoms: _512  and  _515
REMARK  211  A    between atoms: _515  and  _516
REMARK  212  A    between atoms: _516  and  _517
REMARK  213  A    between atoms: _517  and  _518
REMARK  214  A    between atoms: _527  and  _529
REMARK  215  A    between atoms: _529  and  _530
REMARK  216  A    between atoms: _529  and  _532
REMARK  217  A    between atoms: _532  and  _533
REMARK                            x       y       z     vdW  Elec       q    Type
REMARK                         _______ _______ _______ _____ _____    ______ ____
ROOT
ATOM      1  O   HOH     1       9.930  16.753  17.997  0.00  0.00    +0.000 OA
ENDROOT
TORSDOF 0
REMARK  Name = ../refined-set-2016/1ivp/1ivp_pocket.pdb
REMARK  217 active torsions:
REMARK  status: ('A' for Active; 'I' for Inactive)
REMARK    1  A    between atoms: _1  and  _3
REMARK    2  A    between atoms: _3  and  _4
REMARK    3  A    between atoms: _3  and  _6
REMARK    4  A    between atoms: _6  and  _7
REMARK    5  A    between atoms: _7  and  _8
REMARK    6  A    between atoms: _8  and  _9
REMARK    7  A    between atoms: _18  and  _20
REMARK    8  A    between atoms: _20  and  _21
REMARK    9  A    between atoms: _20  and  _23
REMARK   10  A    between atoms: _23  and  _24
REMARK   11  A    between atoms: _27  and  _29
REMARK   12  A    between atoms: _29  and  _30
REMARK   13  A    between atoms: _29  and  _32
REMARK   14  A    between atoms: _32  and  _33
REMARK   15  A    between atoms: _36  and  _38
REMARK   16  A    between atoms: _38  and  _39
REMARK   17  A    between atoms: _38  and  _41
REMARK   18  A    between atoms: _41  and  _42
REMARK   19  A    between atoms: _45  and  _47
REMARK   20  A    between atoms: _47  and  _48
REMARK   21  A    between atoms: _47  and  _50
REMARK   22  A    between atoms: _50  and  _51
REMARK   23  A    between atoms: _54  and  _56
REMARK   24  A    between atoms: _56  and  _57
REMARK   25  A    between atoms: _59  and  _61
REMARK   26  A    between atoms: _61  and  _62
REMARK   27  A    between atoms: _65  and  _67
REMARK   28  A    between atoms: _67  and  _68
REMARK   29  A    between atoms: _67  and  _70
REMARK   30  A    between atoms: _70  and  _71
REMARK   31  A    between atoms: _74  and  _76
REMARK   32  A    between atoms: _76  and  _77
REMARK   33  A    between atoms: _76  and  _79
REMARK   34  A    between atoms: _79  and  _80
REMARK   35  A    between atoms: _83  and  _85
REMARK   36  A    between atoms: _85  and  _86
REMARK   37  A    between atoms: _85  and  _88
REMARK   38  A    between atoms: _88  and  _89
REMARK   39  A    between atoms: _91  and  _93
REMARK   40  A    between atoms: _93  and  _94
REMARK   41  A    between atoms: _93  and  _96
REMARK   42  A    between atoms: _96  and  _97
REMARK   43  A    between atoms: _100  and  _102
REMARK   44  A    between atoms: _102  and  _103
REMARK   45  A    between atoms: _102  and  _105
REMARK   46  A    between atoms: _105  and  _106
REMARK   47  A    between atoms: _109  and  _111
REMARK   48  A    between atoms: _111  and  _112
REMARK   49  A    between atoms: _111  and  _114
REMARK   50  A    between atoms: _117  and  _119
REMARK   51  A    between atoms: _119  and  _120
REMARK   52  A    between atoms: _122  and  _124
REMARK   53  A    between atoms: _124  and  _125
REMARK   54  A    between atoms: _129  and  _130
REMARK   55  A    between atoms: _129  and  _132
REMARK   56  A    between atoms: _132  and  _133
REMARK   57  A    between atoms: _136  and  _138
REMARK   58  A    between atoms: _138  and  _139
REMARK   59  A    between atoms: _141  and  _143
REMARK   60  A    between atoms: _143  and  _144
REMARK   61  A    between atoms: _146  and  _148
REMARK   62  A    between atoms: _148  and  _149
REMARK   63  A    between atoms: _148  and  _151
REMARK   64  A    between atoms: _151  and  _152
REMARK   65  A    between atoms: _158  and  _160
REMARK   66  A    between atoms: _160  and  _161
REMARK   67  A    between atoms: _160  and  _163
REMARK   68  A    between atoms: _163  and  _164
REMARK   69  A    between atoms: _167  and  _169
REMARK   70  A    between atoms: _169  and  _170
REMARK   71  A    between atoms: _169  and  _172
REMARK   72  A    between atoms: _172  and  _173
REMARK   73  A    between atoms: _173  and  _174
REMARK   74  A    between atoms: _176  and  _178
REMARK   75  A    between atoms: _178  and  _179
REMARK   76  A    between atoms: _178  and  _181
REMARK   77  A    between atoms: _181  and  _182
REMARK   78  A    between atoms: _185  and  _187
REMARK   79  A    between atoms: _187  and  _188
REMARK   80  A    between atoms: _187  and  _190
REMARK   81  A    between atoms: _190  and  _191
REMARK   82  A    between atoms: _195  and  _196
REMARK   83  A    between atoms: _201  and  _203
REMARK   84  A    between atoms: _203  and  _204
REMARK   85  A    between atoms: _203  and  _206
REMARK   86  A    between atoms: _206  and  _207
REMARK   87  A    between atoms: _210  and  _212
REMARK   88  A    between atoms: _212  and  _213
REMARK   89  A    between atoms: _212  and  _215
REMARK   90  A    between atoms: _215  and  _216
REMARK   91  A    between atoms: _221  and  _223
REMARK   92  A    between atoms: _223  and  _224
REMARK   93  A    between atoms: _223  and  _226
REMARK   94  A    between atoms: _226  and  _227
REMARK   95  A    between atoms: _230  and  _232
REMARK   96  A    between atoms: _232  and  _233
REMARK   97  A    between atoms: _232  and  _235
REMARK   98  A    between atoms: _235  and  _236
REMARK   99  A    between atoms: _242  and  _244
REMARK  100  A    between atoms: _244  and  _245
REMARK  101  A    between atoms: _247  and  _249
REMARK  102  A    between atoms: _249  and  _250
REMARK  103  A    between atoms: _249  and  _252
REMARK  104  A    between atoms: _252  and  _253
REMARK  105  A    between atoms: _253  and  _254
REMARK  106  A    between atoms: _254  and  _255
REMARK  107  A    between atoms: _264  and  _266
REMARK  108  A    between atoms: _266  and  _267
REMARK  109  A    between atoms: _266  and  _269
REMARK  110  A    between atoms: _269  and  _270
REMARK  111  A    between atoms: _270  and  _271
REMARK  112  A    between atoms: _271  and  _272
REMARK  113  A    between atoms: _281  and  _283
REMARK  114  A    between atoms: _283  and  _284
REMARK  115  A    between atoms: _283  and  _286
REMARK  116  A    between atoms: _286  and  _287
REMARK  117  A    between atoms: _290  and  _292
REMARK  118  A    between atoms: _292  and  _293
REMARK  119  A    between atoms: _292  and  _295
REMARK  120  A    between atoms: _295  and  _296
REMARK  121  A    between atoms: _299  and  _301
REMARK  122  A    between atoms: _301  and  _302
REMARK  123  A    between atoms: _301  and  _304
REMARK  124  A    between atoms: _304  and  _305
REMARK  125  A    between atoms: _308  and  _310
REMARK  126  A    between atoms: _310  and  _311
REMARK  127  A    between atoms: _310  and  _313
REMARK  128  A    between atoms: _313  and  _314
REMARK  129  A    between atoms: _317  and  _319
REMARK  130  A    between atoms: _319  and  _320
REMARK  131  A    between atoms: _322  and  _324
REMARK  132  A    between atoms: _324  and  _325
REMARK  133  A    between atoms: _328  and  _330
REMARK  134  A    between atoms: _330  and  _331
REMARK  135  A    between atoms: _330  and  _333
REMARK  136  A    between atoms: _333  and  _334
REMARK  137  A    between atoms: _337  and  _339
REMARK  138  A    between atoms: _339  and  _340
REMARK  139  A    between atoms: _339  and  _342
REMARK  140  A    between atoms: _342  and  _343
REMARK  141  A    between atoms: _346  and  _348
REMARK  142  A    between atoms: _348  and  _349
REMARK  143  A    between atoms: _348  and  _351
REMARK  144  A    between atoms: _351  and  _352
REMARK  145  A    between atoms: _354  and  _356
REMARK  146  A    between atoms: _356  and  _357
REMARK  147  A    between atoms: _356  and  _359
REMARK  148  A    between atoms: _359  and  _360
REMARK  149  A    between atoms: _363  and  _365
REMARK  150  A    between atoms: _365  and  _366
REMARK  151  A    between atoms: _365  and  _368
REMARK  152  A    between atoms: _368  and  _369
REMARK  153  A    between atoms: _372  and  _374
REMARK  154  A    between atoms: _374  and  _375
REMARK  155  A    between atoms: _374  and  _377
REMARK  156  A    between atoms: _380  and  _382
REMARK  157  A    between atoms: _382  and  _383
REMARK  158  A    between atoms: _385  and  _387
REMARK  159  A    between atoms: _387  and  _388
REMARK  160  A    between atoms: _390  and  _392
REMARK  161  A    between atoms: _392  and  _393
REMARK  162  A    between atoms: _392  and  _395
REMARK  163  A    between atoms: _395  and  _396
REMARK  164  A    between atoms: _399  and  _401
REMARK  165  A    between atoms: _401  and  _402
REMARK  166  A    between atoms: _404  and  _406
REMARK  167  A    between atoms: _406  and  _407
REMARK  168  A    between atoms: _409  and  _411
REMARK  169  A    between atoms: _411  and  _412
REMARK  170  A    between atoms: _411  and  _414
REMARK  171  A    between atoms: _414  and  _415
REMARK  172  A    between atoms: _421  and  _423
REMARK  173  A    between atoms: _423  and  _424
REMARK  174  A    between atoms: _423  and  _426
REMARK  175  A    between atoms: _426  and  _427
REMARK  176  A    between atoms: _430  and  _432
REMARK  177  A    between atoms: _432  and  _433
REMARK  178  A    between atoms: _432  and  _435
REMARK  179  A    between atoms: _435  and  _436
REMARK  180  A    between atoms: _439  and  _441
REMARK  181  A    between atoms: _441  and  _442
REMARK  182  A    between atoms: _441  and  _444
REMARK  183  A    between atoms: _444  and  _445
REMARK  184  A    between atoms: _445  and  _446
REMARK  185  A    between atoms: _448  and  _450
REMARK  186  A    between atoms: _450  and  _451
REMARK  187  A    between atoms: _450  and  _453
REMARK  188  A    between atoms: _453  and  _454
REMARK  189  A    between atoms: _458  and  _459
REMARK  190  A    between atoms: _464  and  _466
REMARK  191  A    between atoms: _466  and  _467
REMARK  192  A    between atoms: _466  and  _469
REMARK  193  A    between atoms: _469  and  _470
REMARK  194  A    between atoms: _473  and  _475
REMARK  195  A    between atoms: _475  and  _476
REMARK  196  A    between atoms: _475  and  _478
REMARK  197  A    between atoms: _478  and  _479
REMARK  198  A    between atoms: _484  and  _486
REMARK  199  A    between atoms: _486  and  _487
REMARK  200  A    between atoms: _486  and  _489
REMARK  201  A    between atoms: _489  and  _490
REMARK  202  A    between atoms: _493  and  _495
REMARK  203  A    between atoms: _495  and  _496
REMARK  204  A    between atoms: _495  and  _498
REMARK  205  A    between atoms: _498  and  _499
REMARK  206  A    between atoms: _505  and  _507
REMARK  207  A    between atoms: _507  and  _508
REMARK  208  A    between atoms: _510  and  _512
REMARK  209  A    between atoms: _512  and  _513
REMARK  210  A    between atoms: _512  and  _515
REMARK  211  A    between atoms: _515  and  _516
REMARK  212  A    between atoms: _516  and  _517
REMARK  213  A    between atoms: _517  and  _518
REMARK  214  A    between atoms: _527  and  _529
REMARK  215  A    between atoms: _529  and  _530
REMARK  216  A    between atoms: _529  and  _532
REMARK  217  A    between atoms: _532  and  _533
REMARK                            x       y       z     vdW  Elec       q    Type
REMARK                         _______ _______ _______ _____ _____    ______ ____
ROOT
ATOM      1  O   HOH     1      10.097  14.723  10.913  0.00  0.00    +0.000 OA
ENDROOT
TORSDOF 0
REMARK  Name = ../refined-set-2016/1ivp/1ivp_pocket.pdb
REMARK  217 active torsions:
REMARK  status: ('A' for Active; 'I' for Inactive)
REMARK    1  A    between atoms: _1  and  _3
REMARK    2  A    between atoms: _3  and  _4
REMARK    3  A    between atoms: _3  and  _6
REMARK    4  A    between atoms: _6  and  _7
REMARK    5  A    between atoms: _7  and  _8
REMARK    6  A    between atoms: _8  and  _9
REMARK    7  A    between atoms: _18  and  _20
REMARK    8  A    between atoms: _20  and  _21
REMARK    9  A    between atoms: _20  and  _23
REMARK   10  A    between atoms: _23  and  _24
REMARK   11  A    between atoms: _27  and  _29
REMARK   12  A    between atoms: _29  and  _30
REMARK   13  A    between atoms: _29  and  _32
REMARK   14  A    between atoms: _32  and  _33
REMARK   15  A    between atoms: _36  and  _38
REMARK   16  A    between atoms: _38  and  _39
REMARK   17  A    between atoms: _38  and  _41
REMARK   18  A    between atoms: _41  and  _42
REMARK   19  A    between atoms: _45  and  _47
REMARK   20  A    between atoms: _47  and  _48
REMARK   21  A    between atoms: _47  and  _50
REMARK   22  A    between atoms: _50  and  _51
REMARK   23  A    between atoms: _54  and  _56
REMARK   24  A    between atoms: _56  and  _57
REMARK   25  A    between atoms: _59  and  _61
REMARK   26  A    between atoms: _61  and  _62
REMARK   27  A    between atoms: _65  and  _67
REMARK   28  A    between atoms: _67  and  _68
REMARK   29  A    between atoms: _67  and  _70
REMARK   30  A    between atoms: _70  and  _71
REMARK   31  A    between atoms: _74  and  _76
REMARK   32  A    between atoms: _76  and  _77
REMARK   33  A    between atoms: _76  and  _79
REMARK   34  A    between atoms: _79  and  _80
REMARK   35  A    between atoms: _83  and  _85
REMARK   36  A    between atoms: _85  and  _86
REMARK   37  A    between atoms: _85  and  _88
REMARK   38  A    between atoms: _88  and  _89
REMARK   39  A    between atoms: _91  and  _93
REMARK   40  A    between atoms: _93  and  _94
REMARK   41  A    between atoms: _93  and  _96
REMARK   42  A    between atoms: _96  and  _97
REMARK   43  A    between atoms: _100  and  _102
REMARK   44  A    between atoms: _102  and  _103
REMARK   45  A    between atoms: _102  and  _105
REMARK   46  A    between atoms: _105  and  _106
REMARK   47  A    between atoms: _109  and  _111
REMARK   48  A    between atoms: _111  and  _112
REMARK   49  A    between atoms: _111  and  _114
REMARK   50  A    between atoms: _117  and  _119
REMARK   51  A    between atoms: _119  and  _120
REMARK   52  A    between atoms: _122  and  _124
REMARK   53  A    between atoms: _124  and  _125
REMARK   54  A    between atoms: _129  and  _130
REMARK   55  A    between atoms: _129  and  _132
REMARK   56  A    between atoms: _132  and  _133
REMARK   57  A    between atoms: _136  and  _138
REMARK   58  A    between atoms: _138  and  _139
REMARK   59  A    between atoms: _141  and  _143
REMARK   60  A    between atoms: _143  and  _144
REMARK   61  A    between atoms: _146  and  _148
REMARK   62  A    between atoms: _148  and  _149
REMARK   63  A    between atoms: _148  and  _151
REMARK   64  A    between atoms: _151  and  _152
REMARK   65  A    between atoms: _158  and  _160
REMARK   66  A    between atoms: _160  and  _161
REMARK   67  A    between atoms: _160  and  _163
REMARK   68  A    between atoms: _163  and  _164
REMARK   69  A    between atoms: _167  and  _169
REMARK   70  A    between atoms: _169  and  _170
REMARK   71  A    between atoms: _169  and  _172
REMARK   72  A    between atoms: _172  and  _173
REMARK   73  A    between atoms: _173  and  _174
REMARK   74  A    between atoms: _176  and  _178
REMARK   75  A    between atoms: _178  and  _179
REMARK   76  A    between atoms: _178  and  _181
REMARK   77  A    between atoms: _181  and  _182
REMARK   78  A    between atoms: _185  and  _187
REMARK   79  A    between atoms: _187  and  _188
REMARK   80  A    between atoms: _187  and  _190
REMARK   81  A    between atoms: _190  and  _191
REMARK   82  A    between atoms: _195  and  _196
REMARK   83  A    between atoms: _201  and  _203
REMARK   84  A    between atoms: _203  and  _204
REMARK   85  A    between atoms: _203  and  _206
REMARK   86  A    between atoms: _206  and  _207
REMARK   87  A    between atoms: _210  and  _212
REMARK   88  A    between atoms: _212  and  _213
REMARK   89  A    between atoms: _212  and  _215
REMARK   90  A    between atoms: _215  and  _216
REMARK   91  A    between atoms: _221  and  _223
REMARK   92  A    between atoms: _223  and  _224
REMARK   93  A    between atoms: _223  and  _226
REMARK   94  A    between atoms: _226  and  _227
REMARK   95  A    between atoms: _230  and  _232
REMARK   96  A    between atoms: _232  and  _233
REMARK   97  A    between atoms: _232  and  _235
REMARK   98  A    between atoms: _235  and  _236
REMARK   99  A    between atoms: _242  and  _244
REMARK  100  A    between atoms: _244  and  _245
REMARK  101  A    between atoms: _247  and  _249
REMARK  102  A    between atoms: _249  and  _250
REMARK  103  A    between atoms: _249  and  _252
REMARK  104  A    between atoms: _252  and  _253
REMARK  105  A    between atoms: _253  and  _254
REMARK  106  A    between atoms: _254  and  _255
REMARK  107  A    between atoms: _264  and  _266
REMARK  108  A    between atoms: _266  and  _267
REMARK  109  A    between atoms: _266  and  _269
REMARK  110  A    between atoms: _269  and  _270
REMARK  111  A    between atoms: _270  and  _271
REMARK  112  A    between atoms: _271  and  _272
REMARK  113  A    between atoms: _281  and  _283
REMARK  114  A    between atoms: _283  and  _284
REMARK  115  A    between atoms: _283  and  _286
REMARK  116  A    between atoms: _286  and  _287
REMARK  117  A    between atoms: _290  and  _292
REMARK  118  A    between atoms: _292  and  _293
REMARK  119  A    between atoms: _292  and  _295
REMARK  120  A    between atoms: _295  and  _296
REMARK  121  A    between atoms: _299  and  _301
REMARK  122  A    between atoms: _301  and  _302
REMARK  123  A    between atoms: _301  and  _304
REMARK  124  A    between atoms: _304  and  _305
REMARK  125  A    between atoms: _308  and  _310
REMARK  126  A    between atoms: _310  and  _311
REMARK  127  A    between atoms: _310  and  _313
REMARK  128  A    between atoms: _313  and  _314
REMARK  129  A    between atoms: _317  and  _319
REMARK  130  A    between atoms: _319  and  _320
REMARK  131  A    between atoms: _322  and  _324
REMARK  132  A    between atoms: _324  and  _325
REMARK  133  A    between atoms: _328  and  _330
REMARK  134  A    between atoms: _330  and  _331
REMARK  135  A    between atoms: _330  and  _333
REMARK  136  A    between atoms: _333  and  _334
REMARK  137  A    between atoms: _337  and  _339
REMARK  138  A    between atoms: _339  and  _340
REMARK  139  A    between atoms: _339  and  _342
REMARK  140  A    between atoms: _342  and  _343
REMARK  141  A    between atoms: _346  and  _348
REMARK  142  A    between atoms: _348  and  _349
REMARK  143  A    between atoms: _348  and  _351
REMARK  144  A    between atoms: _351  and  _352
REMARK  145  A    between atoms: _354  and  _356
REMARK  146  A    between atoms: _356  and  _357
REMARK  147  A    between atoms: _356  and  _359
REMARK  148  A    between atoms: _359  and  _360
REMARK  149  A    between atoms: _363  and  _365
REMARK  150  A    between atoms: _365  and  _366
REMARK  151  A    between atoms: _365  and  _368
REMARK  152  A    between atoms: _368  and  _369
REMARK  153  A    between atoms: _372  and  _374
REMARK  154  A    between atoms: _374  and  _375
REMARK  155  A    between atoms: _374  and  _377
REMARK  156  A    between atoms: _380  and  _382
REMARK  157  A    between atoms: _382  and  _383
REMARK  158  A    between atoms: _385  and  _387
REMARK  159  A    between atoms: _387  and  _388
REMARK  160  A    between atoms: _390  and  _392
REMARK  161  A    between atoms: _392  and  _393
REMARK  162  A    between atoms: _392  and  _395
REMARK  163  A    between atoms: _395  and  _396
REMARK  164  A    between atoms: _399  and  _401
REMARK  165  A    between atoms: _401  and  _402
REMARK  166  A    between atoms: _404  and  _406
REMARK  167  A    between atoms: _406  and  _407
REMARK  168  A    between atoms: _409  and  _411
REMARK  169  A    between atoms: _411  and  _412
REMARK  170  A    between atoms: _411  and  _414
REMARK  171  A    between atoms: _414  and  _415
REMARK  172  A    between atoms: _421  and  _423
REMARK  173  A    between atoms: _423  and  _424
REMARK  174  A    between atoms: _423  and  _426
REMARK  175  A    between atoms: _426  and  _427
REMARK  176  A    between atoms: _430  and  _432
REMARK  177  A    between atoms: _432  and  _433
REMARK  178  A    between atoms: _432  and  _435
REMARK  179  A    between atoms: _435  and  _436
REMARK  180  A    between atoms: _439  and  _441
REMARK  181  A    between atoms: _441  and  _442
REMARK  182  A    between atoms: _441  and  _444
REMARK  183  A    between atoms: _444  and  _445
REMARK  184  A    between atoms: _445  and  _446
REMARK  185  A    between atoms: _448  and  _450
REMARK  186  A    between atoms: _450  and  _451
REMARK  187  A    between atoms: _450  and  _453
REMARK  188  A    between atoms: _453  and  _454
REMARK  189  A    between atoms: _458  and  _459
REMARK  190  A    between atoms: _464  and  _466
REMARK  191  A    between atoms: _466  and  _467
REMARK  192  A    between atoms: _466  and  _469
REMARK  193  A    between atoms: _469  and  _470
REMARK  194  A    between atoms: _473  and  _475
REMARK  195  A    between atoms: _475  and  _476
REMARK  196  A    between atoms: _475  and  _478
REMARK  197  A    between atoms: _478  and  _479
REMARK  198  A    between atoms: _484  and  _486
REMARK  199  A    between atoms: _486  and  _487
REMARK  200  A    between atoms: _486  and  _489
REMARK  201  A    between atoms: _489  and  _490
REMARK  202  A    between atoms: _493  and  _495
REMARK  203  A    between atoms: _495  and  _496
REMARK  204  A    between atoms: _495  and  _498
REMARK  205  A    between atoms: _498  and  _499
REMARK  206  A    between atoms: _505  and  _507
REMARK  207  A    between atoms: _507  and  _508
REMARK  208  A    between atoms: _510  and  _512
REMARK  209  A    between atoms: _512  and  _513
REMARK  210  A    between atoms: _512  and  _515
REMARK  211  A    between atoms: _515  and  _516
REMARK  212  A    between atoms: _516  and  _517
REMARK  213  A    between atoms: _517  and  _518
REMARK  214  A    between atoms: _527  and  _529
REMARK  215  A    between atoms: _529  and  _530
REMARK  216  A    between atoms: _529  and  _532
REMARK  217  A    between atoms: _532  and  _533
REMARK                            x       y       z     vdW  Elec       q    Type
REMARK                         _______ _______ _______ _____ _____    ______ ____
ROOT
ATOM      1  O   HOH     1      -1.216  15.897  21.658  0.00  0.00    +0.000 OA
ENDROOT
TORSDOF 0
