REMARK  Name = ../refined-set-2016/2q64/2q64_pocket.pdb
REMARK  224 active torsions:
REMARK  status: ('A' for Active; 'I' for Inactive)
REMARK    1  A    between atoms: _1  and  _3
REMARK    2  A    between atoms: _3  and  _4
REMARK    3  A    between atoms: _3  and  _6
REMARK    4  A    between atoms: _6  and  _7
REMARK    5  A    between atoms: _7  and  _8
REMARK    6  A    between atoms: _8  and  _9
REMARK    7  A    between atoms: _18  and  _20
REMARK    8  A    between atoms: _20  and  _21
REMARK    9  A    between atoms: _20  and  _23
REMARK   10  A    between atoms: _23  and  _24
REMARK   11  A    between atoms: _27  and  _29
REMARK   12  A    between atoms: _29  and  _30
REMARK   13  A    between atoms: _29  and  _32
REMARK   14  A    between atoms: _32  and  _33
REMARK   15  A    between atoms: _36  and  _38
REMARK   16  A    between atoms: _38  and  _39
REMARK   17  A    between atoms: _38  and  _41
REMARK   18  A    between atoms: _41  and  _42
REMARK   19  A    between atoms: _45  and  _47
REMARK   20  A    between atoms: _47  and  _48
REMARK   21  A    between atoms: _47  and  _50
REMARK   22  A    between atoms: _50  and  _51
REMARK   23  A    between atoms: _54  and  _56
REMARK   24  A    between atoms: _56  and  _57
REMARK   25  A    between atoms: _59  and  _61
REMARK   26  A    between atoms: _61  and  _62
REMARK   27  A    between atoms: _65  and  _67
REMARK   28  A    between atoms: _67  and  _68
REMARK   29  A    between atoms: _67  and  _70
REMARK   30  A    between atoms: _70  and  _71
REMARK   31  A    between atoms: _74  and  _76
REMARK   32  A    between atoms: _76  and  _77
REMARK   33  A    between atoms: _76  and  _79
REMARK   34  A    between atoms: _79  and  _80
REMARK   35  A    between atoms: _85  and  _87
REMARK   36  A    between atoms: _87  and  _88
REMARK   37  A    between atoms: _87  and  _90
REMARK   38  A    between atoms: _90  and  _91
REMARK   39  A    between atoms: _94  and  _96
REMARK   40  A    between atoms: _96  and  _97
REMARK   41  A    between atoms: _96  and  _99
REMARK   42  A    between atoms: _102  and  _104
REMARK   43  A    between atoms: _104  and  _105
REMARK   44  A    between atoms: _104  and  _107
REMARK   45  A    between atoms: _107  and  _108
REMARK   46  A    between atoms: _108  and  _109
REMARK   47  A    between atoms: _109  and  _110
REMARK   48  A    between atoms: _110  and  _111
REMARK   49  A    between atoms: _115  and  _117
REMARK   50  A    between atoms: _117  and  _118
REMARK   51  A    between atoms: _117  and  _120
REMARK   52  A    between atoms: _120  and  _121
REMARK   53  A    between atoms: _121  and  _122
REMARK   54  A    between atoms: _124  and  _126
REMARK   55  A    between atoms: _126  and  _127
REMARK   56  A    between atoms: _126  and  _129
REMARK   57  A    between atoms: _129  and  _130
REMARK   58  A    between atoms: _133  and  _135
REMARK   59  A    between atoms: _135  and  _136
REMARK   60  A    between atoms: _138  and  _140
REMARK   61  A    between atoms: _140  and  _141
REMARK   62  A    between atoms: _145  and  _146
REMARK   63  A    between atoms: _145  and  _148
REMARK   64  A    between atoms: _148  and  _149
REMARK   65  A    between atoms: _152  and  _154
REMARK   66  A    between atoms: _154  and  _155
REMARK   67  A    between atoms: _157  and  _159
REMARK   68  A    between atoms: _159  and  _160
REMARK   69  A    between atoms: _162  and  _164
REMARK   70  A    between atoms: _164  and  _165
REMARK   71  A    between atoms: _164  and  _167
REMARK   72  A    between atoms: _167  and  _168
REMARK   73  A    between atoms: _171  and  _173
REMARK   74  A    between atoms: _173  and  _174
REMARK   75  A    between atoms: _173  and  _176
REMARK   76  A    between atoms: _179  and  _181
REMARK   77  A    between atoms: _181  and  _182
REMARK   78  A    between atoms: _181  and  _184
REMARK   79  A    between atoms: _184  and  _185
REMARK   80  A    between atoms: _189  and  _190
REMARK   81  A    between atoms: _195  and  _197
REMARK   82  A    between atoms: _197  and  _198
REMARK   83  A    between atoms: _197  and  _200
REMARK   84  A    between atoms: _200  and  _201
REMARK   85  A    between atoms: _205  and  _206
REMARK   86  A    between atoms: _211  and  _213
REMARK   87  A    between atoms: _213  and  _214
REMARK   88  A    between atoms: _213  and  _216
REMARK   89  A    between atoms: _219  and  _221
REMARK   90  A    between atoms: _221  and  _222
REMARK   91  A    between atoms: _221  and  _224
REMARK   92  A    between atoms: _224  and  _225
REMARK   93  A    between atoms: _230  and  _232
REMARK   94  A    between atoms: _232  and  _233
REMARK   95  A    between atoms: _232  and  _235
REMARK   96  A    between atoms: _235  and  _236
REMARK   97  A    between atoms: _239  and  _241
REMARK   98  A    between atoms: _241  and  _242
REMARK   99  A    between atoms: _244  and  _246
REMARK  100  A    between atoms: _246  and  _247
REMARK  101  A    between atoms: _246  and  _249
REMARK  102  A    between atoms: _249  and  _250
REMARK  103  A    between atoms: _250  and  _251
REMARK  104  A    between atoms: _251  and  _252
REMARK  105  A    between atoms: _261  and  _263
REMARK  106  A    between atoms: _263  and  _264
REMARK  107  A    between atoms: _263  and  _266
REMARK  108  A    between atoms: _266  and  _267
REMARK  109  A    between atoms: _272  and  _274
REMARK  110  A    between atoms: _274  and  _275
REMARK  111  A    between atoms: _274  and  _277
REMARK  112  A    between atoms: _277  and  _278
REMARK  113  A    between atoms: _278  and  _279
REMARK  114  A    between atoms: _279  and  _280
REMARK  115  A    between atoms: _289  and  _291
REMARK  116  A    between atoms: _291  and  _292
REMARK  117  A    between atoms: _291  and  _294
REMARK  118  A    between atoms: _294  and  _295
REMARK  119  A    between atoms: _298  and  _300
REMARK  120  A    between atoms: _300  and  _301
REMARK  121  A    between atoms: _300  and  _303
REMARK  122  A    between atoms: _303  and  _304
REMARK  123  A    between atoms: _307  and  _309
REMARK  124  A    between atoms: _309  and  _310
REMARK  125  A    between atoms: _309  and  _312
REMARK  126  A    between atoms: _312  and  _313
REMARK  127  A    between atoms: _316  and  _318
REMARK  128  A    between atoms: _318  and  _319
REMARK  129  A    between atoms: _318  and  _321
REMARK  130  A    between atoms: _321  and  _322
REMARK  131  A    between atoms: _325  and  _327
REMARK  132  A    between atoms: _327  and  _328
REMARK  133  A    between atoms: _330  and  _332
REMARK  134  A    between atoms: _332  and  _333
REMARK  135  A    between atoms: _336  and  _338
REMARK  136  A    between atoms: _338  and  _339
REMARK  137  A    between atoms: _338  and  _341
REMARK  138  A    between atoms: _341  and  _342
REMARK  139  A    between atoms: _345  and  _347
REMARK  140  A    between atoms: _347  and  _348
REMARK  141  A    between atoms: _347  and  _350
REMARK  142  A    between atoms: _350  and  _351
REMARK  143  A    between atoms: _356  and  _358
REMARK  144  A    between atoms: _358  and  _359
REMARK  145  A    between atoms: _358  and  _361
REMARK  146  A    between atoms: _361  and  _362
REMARK  147  A    between atoms: _365  and  _367
REMARK  148  A    between atoms: _367  and  _368
REMARK  149  A    between atoms: _367  and  _370
REMARK  150  A    between atoms: _373  and  _375
REMARK  151  A    between atoms: _375  and  _376
REMARK  152  A    between atoms: _375  and  _378
REMARK  153  A    between atoms: _378  and  _379
REMARK  154  A    between atoms: _382  and  _384
REMARK  155  A    between atoms: _384  and  _385
REMARK  156  A    between atoms: _384  and  _387
REMARK  157  A    between atoms: _387  and  _388
REMARK  158  A    between atoms: _388  and  _389
REMARK  159  A    between atoms: _389  and  _390
REMARK  160  A    between atoms: _390  and  _391
REMARK  161  A    between atoms: _395  and  _397
REMARK  162  A    between atoms: _397  and  _398
REMARK  163  A    between atoms: _397  and  _400
REMARK  164  A    between atoms: _400  and  _401
REMARK  165  A    between atoms: _401  and  _402
REMARK  166  A    between atoms: _404  and  _406
REMARK  167  A    between atoms: _406  and  _407
REMARK  168  A    between atoms: _406  and  _409
REMARK  169  A    between atoms: _409  and  _410
REMARK  170  A    between atoms: _413  and  _415
REMARK  171  A    between atoms: _415  and  _416
REMARK  172  A    between atoms: _418  and  _420
REMARK  173  A    between atoms: _420  and  _421
REMARK  174  A    between atoms: _423  and  _425
REMARK  175  A    between atoms: _425  and  _426
REMARK  176  A    between atoms: _425  and  _428
REMARK  177  A    between atoms: _428  and  _429
REMARK  178  A    between atoms: _432  and  _434
REMARK  179  A    between atoms: _434  and  _435
REMARK  180  A    between atoms: _437  and  _439
REMARK  181  A    between atoms: _439  and  _440
REMARK  182  A    between atoms: _442  and  _444
REMARK  183  A    between atoms: _444  and  _445
REMARK  184  A    between atoms: _444  and  _447
REMARK  185  A    between atoms: _447  and  _448
REMARK  186  A    between atoms: _454  and  _456
REMARK  187  A    between atoms: _456  and  _457
REMARK  188  A    between atoms: _456  and  _459
REMARK  189  A    between atoms: _459  and  _460
REMARK  190  A    between atoms: _463  and  _465
REMARK  191  A    between atoms: _465  and  _466
REMARK  192  A    between atoms: _465  and  _468
REMARK  193  A    between atoms: _471  and  _473
REMARK  194  A    between atoms: _473  and  _474
REMARK  195  A    between atoms: _473  and  _476
REMARK  196  A    between atoms: _476  and  _477
REMARK  197  A    between atoms: _480  and  _482
REMARK  198  A    between atoms: _482  and  _483
REMARK  199  A    between atoms: _482  and  _485
REMARK  200  A    between atoms: _485  and  _486
REMARK  201  A    between atoms: _490  and  _491
REMARK  202  A    between atoms: _496  and  _498
REMARK  203  A    between atoms: _498  and  _499
REMARK  204  A    between atoms: _498  and  _501
REMARK  205  A    between atoms: _504  and  _506
REMARK  206  A    between atoms: _506  and  _507
REMARK  207  A    between atoms: _506  and  _509
REMARK  208  A    between atoms: _509  and  _510
REMARK  209  A    between atoms: _515  and  _517
REMARK  210  A    between atoms: _517  and  _518
REMARK  211  A    between atoms: _517  and  _520
REMARK  212  A    between atoms: _520  and  _521
REMARK  213  A    between atoms: _524  and  _526
REMARK  214  A    between atoms: _526  and  _527
REMARK  215  A    between atoms: _526  and  _529
REMARK  216  A    between atoms: _529  and  _530
REMARK  217  A    between atoms: _533  and  _535
REMARK  218  A    between atoms: _535  and  _536
REMARK  219  A    between atoms: _538  and  _540
REMARK  220  A    between atoms: _540  and  _541
REMARK  221  A    between atoms: _540  and  _543
REMARK  222  A    between atoms: _543  and  _544
REMARK  223  A    between atoms: _544  and  _545
REMARK  224  A    between atoms: _545  and  _546
REMARK                            x       y       z     vdW  Elec       q    Type
REMARK                         _______ _______ _______ _____ _____    ______ ____
ROOT
ATOM      1  NE  ARG A   1     -18.012  14.326  32.652  0.00  0.00    -0.265 N 
ATOM      2  HE  ARG A   1     -17.745  14.553  33.631  0.00  0.00    +0.259 HD
ATOM      3  CZ  ARG A   1     -17.317  13.370  32.026  0.00  0.00    +0.342 C 
ATOM      4  NH2 ARG A   1     -16.326  12.740  32.655  0.00  0.00    -0.292 N 
ATOM      5 HH21 ARG A   1     -16.090  12.991  33.636  0.00  0.00    +0.255 HD
ATOM      6 HH22 ARG A   1     -15.788  11.997  32.165  0.00  0.00    +0.255 HD
ATOM      7  NH1 ARG A   1     -17.601  13.045  30.768  0.00  0.00    -0.292 N 
ATOM      8 HH11 ARG A   1     -17.056  12.301  30.288  0.00  0.00    +0.255 HD
ATOM      9 HH12 ARG A   1     -18.368  13.535  30.265  0.00  0.00    +0.255 HD
ENDROOT
BRANCH   1  10
ATOM     10  CD  ARG A   1     -19.124  15.079  32.060  0.00  0.00    +0.174 C 
BRANCH  10  11
ATOM     11  CG  ARG A   1     -19.259  16.482  32.630  0.00  0.00    +0.045 C 
BRANCH  11  12
ATOM     12  CB  ARG A   1     -20.231  17.313  31.795  0.00  0.00    +0.029 C 
BRANCH  12  13
ATOM     13  CA  ARG A   1     -20.374  18.783  32.211  0.00  0.00    +0.133 C 
BRANCH  13  14
ATOM     14  N   ARG A   1     -20.991  18.929  33.548  0.00  0.00    -0.239 NA
ATOM     15  H   ARG A   1     -21.265  18.077  34.078  0.00  0.00    +0.142 HD
ENDBRANCH  13  14
BRANCH  13  16
ATOM     16  C   ARG A   1     -21.247  19.520  31.199  0.00  0.00    +0.224 C 
ATOM     17  O   ARG A   1     -22.471  19.417  31.271  0.00  0.00    -0.287 OA
ENDBRANCH  13  16
ENDBRANCH  12  13
ENDBRANCH  11  12
ENDBRANCH  10  11
ENDBRANCH   1  10
TORSDOF 6
REMARK  Name = ../refined-set-2016/2q64/2q64_pocket.pdb
REMARK  224 active torsions:
REMARK  status: ('A' for Active; 'I' for Inactive)
REMARK    1  A    between atoms: _1  and  _3
REMARK    2  A    between atoms: _3  and  _4
REMARK    3  A    between atoms: _3  and  _6
REMARK    4  A    between atoms: _6  and  _7
REMARK    5  A    between atoms: _7  and  _8
REMARK    6  A    between atoms: _8  and  _9
REMARK    7  A    between atoms: _18  and  _20
REMARK    8  A    between atoms: _20  and  _21
REMARK    9  A    between atoms: _20  and  _23
REMARK   10  A    between atoms: _23  and  _24
REMARK   11  A    between atoms: _27  and  _29
REMARK   12  A    between atoms: _29  and  _30
REMARK   13  A    between atoms: _29  and  _32
REMARK   14  A    between atoms: _32  and  _33
REMARK   15  A    between atoms: _36  and  _38
REMARK   16  A    between atoms: _38  and  _39
REMARK   17  A    between atoms: _38  and  _41
REMARK   18  A    between atoms: _41  and  _42
REMARK   19  A    between atoms: _45  and  _47
REMARK   20  A    between atoms: _47  and  _48
REMARK   21  A    between atoms: _47  and  _50
REMARK   22  A    between atoms: _50  and  _51
REMARK   23  A    between atoms: _54  and  _56
REMARK   24  A    between atoms: _56  and  _57
REMARK   25  A    between atoms: _59  and  _61
REMARK   26  A    between atoms: _61  and  _62
REMARK   27  A    between atoms: _65  and  _67
REMARK   28  A    between atoms: _67  and  _68
REMARK   29  A    between atoms: _67  and  _70
REMARK   30  A    between atoms: _70  and  _71
REMARK   31  A    between atoms: _74  and  _76
REMARK   32  A    between atoms: _76  and  _77
REMARK   33  A    between atoms: _76  and  _79
REMARK   34  A    between atoms: _79  and  _80
REMARK   35  A    between atoms: _85  and  _87
REMARK   36  A    between atoms: _87  and  _88
REMARK   37  A    between atoms: _87  and  _90
REMARK   38  A    between atoms: _90  and  _91
REMARK   39  A    between atoms: _94  and  _96
REMARK   40  A    between atoms: _96  and  _97
REMARK   41  A    between atoms: _96  and  _99
REMARK   42  A    between atoms: _102  and  _104
REMARK   43  A    between atoms: _104  and  _105
REMARK   44  A    between atoms: _104  and  _107
REMARK   45  A    between atoms: _107  and  _108
REMARK   46  A    between atoms: _108  and  _109
REMARK   47  A    between atoms: _109  and  _110
REMARK   48  A    between atoms: _110  and  _111
REMARK   49  A    between atoms: _115  and  _117
REMARK   50  A    between atoms: _117  and  _118
REMARK   51  A    between atoms: _117  and  _120
REMARK   52  A    between atoms: _120  and  _121
REMARK   53  A    between atoms: _121  and  _122
REMARK   54  A    between atoms: _124  and  _126
REMARK   55  A    between atoms: _126  and  _127
REMARK   56  A    between atoms: _126  and  _129
REMARK   57  A    between atoms: _129  and  _130
REMARK   58  A    between atoms: _133  and  _135
REMARK   59  A    between atoms: _135  and  _136
REMARK   60  A    between atoms: _138  and  _140
REMARK   61  A    between atoms: _140  and  _141
REMARK   62  A    between atoms: _145  and  _146
REMARK   63  A    between atoms: _145  and  _148
REMARK   64  A    between atoms: _148  and  _149
REMARK   65  A    between atoms: _152  and  _154
REMARK   66  A    between atoms: _154  and  _155
REMARK   67  A    between atoms: _157  and  _159
REMARK   68  A    between atoms: _159  and  _160
REMARK   69  A    between atoms: _162  and  _164
REMARK   70  A    between atoms: _164  and  _165
REMARK   71  A    between atoms: _164  and  _167
REMARK   72  A    between atoms: _167  and  _168
REMARK   73  A    between atoms: _171  and  _173
REMARK   74  A    between atoms: _173  and  _174
REMARK   75  A    between atoms: _173  and  _176
REMARK   76  A    between atoms: _179  and  _181
REMARK   77  A    between atoms: _181  and  _182
REMARK   78  A    between atoms: _181  and  _184
REMARK   79  A    between atoms: _184  and  _185
REMARK   80  A    between atoms: _189  and  _190
REMARK   81  A    between atoms: _195  and  _197
REMARK   82  A    between atoms: _197  and  _198
REMARK   83  A    between atoms: _197  and  _200
REMARK   84  A    between atoms: _200  and  _201
REMARK   85  A    between atoms: _205  and  _206
REMARK   86  A    between atoms: _211  and  _213
REMARK   87  A    between atoms: _213  and  _214
REMARK   88  A    between atoms: _213  and  _216
REMARK   89  A    between atoms: _219  and  _221
REMARK   90  A    between atoms: _221  and  _222
REMARK   91  A    between atoms: _221  and  _224
REMARK   92  A    between atoms: _224  and  _225
REMARK   93  A    between atoms: _230  and  _232
REMARK   94  A    between atoms: _232  and  _233
REMARK   95  A    between atoms: _232  and  _235
REMARK   96  A    between atoms: _235  and  _236
REMARK   97  A    between atoms: _239  and  _241
REMARK   98  A    between atoms: _241  and  _242
REMARK   99  A    between atoms: _244  and  _246
REMARK  100  A    between atoms: _246  and  _247
REMARK  101  A    between atoms: _246  and  _249
REMARK  102  A    between atoms: _249  and  _250
REMARK  103  A    between atoms: _250  and  _251
REMARK  104  A    between atoms: _251  and  _252
REMARK  105  A    between atoms: _261  and  _263
REMARK  106  A    between atoms: _263  and  _264
REMARK  107  A    between atoms: _263  and  _266
REMARK  108  A    between atoms: _266  and  _267
REMARK  109  A    between atoms: _272  and  _274
REMARK  110  A    between atoms: _274  and  _275
REMARK  111  A    between atoms: _274  and  _277
REMARK  112  A    between atoms: _277  and  _278
REMARK  113  A    between atoms: _278  and  _279
REMARK  114  A    between atoms: _279  and  _280
REMARK  115  A    between atoms: _289  and  _291
REMARK  116  A    between atoms: _291  and  _292
REMARK  117  A    between atoms: _291  and  _294
REMARK  118  A    between atoms: _294  and  _295
REMARK  119  A    between atoms: _298  and  _300
REMARK  120  A    between atoms: _300  and  _301
REMARK  121  A    between atoms: _300  and  _303
REMARK  122  A    between atoms: _303  and  _304
REMARK  123  A    between atoms: _307  and  _309
REMARK  124  A    between atoms: _309  and  _310
REMARK  125  A    between atoms: _309  and  _312
REMARK  126  A    between atoms: _312  and  _313
REMARK  127  A    between atoms: _316  and  _318
REMARK  128  A    between atoms: _318  and  _319
REMARK  129  A    between atoms: _318  and  _321
REMARK  130  A    between atoms: _321  and  _322
REMARK  131  A    between atoms: _325  and  _327
REMARK  132  A    between atoms: _327  and  _328
REMARK  133  A    between atoms: _330  and  _332
REMARK  134  A    between atoms: _332  and  _333
REMARK  135  A    between atoms: _336  and  _338
REMARK  136  A    between atoms: _338  and  _339
REMARK  137  A    between atoms: _338  and  _341
REMARK  138  A    between atoms: _341  and  _342
REMARK  139  A    between atoms: _345  and  _347
REMARK  140  A    between atoms: _347  and  _348
REMARK  141  A    between atoms: _347  and  _350
REMARK  142  A    between atoms: _350  and  _351
REMARK  143  A    between atoms: _356  and  _358
REMARK  144  A    between atoms: _358  and  _359
REMARK  145  A    between atoms: _358  and  _361
REMARK  146  A    between atoms: _361  and  _362
REMARK  147  A    between atoms: _365  and  _367
REMARK  148  A    between atoms: _367  and  _368
REMARK  149  A    between atoms: _367  and  _370
REMARK  150  A    between atoms: _373  and  _375
REMARK  151  A    between atoms: _375  and  _376
REMARK  152  A    between atoms: _375  and  _378
REMARK  153  A    between atoms: _378  and  _379
REMARK  154  A    between atoms: _382  and  _384
REMARK  155  A    between atoms: _384  and  _385
REMARK  156  A    between atoms: _384  and  _387
REMARK  157  A    between atoms: _387  and  _388
REMARK  158  A    between atoms: _388  and  _389
REMARK  159  A    between atoms: _389  and  _390
REMARK  160  A    between atoms: _390  and  _391
REMARK  161  A    between atoms: _395  and  _397
REMARK  162  A    between atoms: _397  and  _398
REMARK  163  A    between atoms: _397  and  _400
REMARK  164  A    between atoms: _400  and  _401
REMARK  165  A    between atoms: _401  and  _402
REMARK  166  A    between atoms: _404  and  _406
REMARK  167  A    between atoms: _406  and  _407
REMARK  168  A    between atoms: _406  and  _409
REMARK  169  A    between atoms: _409  and  _410
REMARK  170  A    between atoms: _413  and  _415
REMARK  171  A    between atoms: _415  and  _416
REMARK  172  A    between atoms: _418  and  _420
REMARK  173  A    between atoms: _420  and  _421
REMARK  174  A    between atoms: _423  and  _425
REMARK  175  A    between atoms: _425  and  _426
REMARK  176  A    between atoms: _425  and  _428
REMARK  177  A    between atoms: _428  and  _429
REMARK  178  A    between atoms: _432  and  _434
REMARK  179  A    between atoms: _434  and  _435
REMARK  180  A    between atoms: _437  and  _439
REMARK  181  A    between atoms: _439  and  _440
REMARK  182  A    between atoms: _442  and  _444
REMARK  183  A    between atoms: _444  and  _445
REMARK  184  A    between atoms: _444  and  _447
REMARK  185  A    between atoms: _447  and  _448
REMARK  186  A    between atoms: _454  and  _456
REMARK  187  A    between atoms: _456  and  _457
REMARK  188  A    between atoms: _456  and  _459
REMARK  189  A    between atoms: _459  and  _460
REMARK  190  A    between atoms: _463  and  _465
REMARK  191  A    between atoms: _465  and  _466
REMARK  192  A    between atoms: _465  and  _468
REMARK  193  A    between atoms: _471  and  _473
REMARK  194  A    between atoms: _473  and  _474
REMARK  195  A    between atoms: _473  and  _476
REMARK  196  A    between atoms: _476  and  _477
REMARK  197  A    between atoms: _480  and  _482
REMARK  198  A    between atoms: _482  and  _483
REMARK  199  A    between atoms: _482  and  _485
REMARK  200  A    between atoms: _485  and  _486
REMARK  201  A    between atoms: _490  and  _491
REMARK  202  A    between atoms: _496  and  _498
REMARK  203  A    between atoms: _498  and  _499
REMARK  204  A    between atoms: _498  and  _501
REMARK  205  A    between atoms: _504  and  _506
REMARK  206  A    between atoms: _506  and  _507
REMARK  207  A    between atoms: _506  and  _509
REMARK  208  A    between atoms: _509  and  _510
REMARK  209  A    between atoms: _515  and  _517
REMARK  210  A    between atoms: _517  and  _518
REMARK  211  A    between atoms: _517  and  _520
REMARK  212  A    between atoms: _520  and  _521
REMARK  213  A    between atoms: _524  and  _526
REMARK  214  A    between atoms: _526  and  _527
REMARK  215  A    between atoms: _526  and  _529
REMARK  216  A    between atoms: _529  and  _530
REMARK  217  A    between atoms: _533  and  _535
REMARK  218  A    between atoms: _535  and  _536
REMARK  219  A    between atoms: _538  and  _540
REMARK  220  A    between atoms: _540  and  _541
REMARK  221  A    between atoms: _540  and  _543
REMARK  222  A    between atoms: _543  and  _544
REMARK  223  A    between atoms: _544  and  _545
REMARK  224  A    between atoms: _545  and  _546
REMARK                            x       y       z     vdW  Elec       q    Type
REMARK                         _______ _______ _______ _____ _____    ______ ____
ROOT
ATOM      1  C   GLY A   5      -9.171  20.581  24.283  0.00  0.00    +0.243 C 
ATOM      2  O   GLY A   5      -8.047  20.082  24.183  0.00  0.00    -0.273 OA
ATOM      3  N   ALA A   6     -10.145  20.328  23.408  0.00  0.00    -0.297 N 
ATOM      4  H   ALA A   6     -11.058  20.811  23.531  0.00  0.00    +0.150 HD
ENDROOT
BRANCH   3   5
ATOM      5  CA  ALA A   6      -9.992  19.406  22.285  0.00  0.00    +0.149 C 
ATOM      6  CB  ALA A   6     -11.237  18.469  22.174  0.00  0.00    +0.031 C 
BRANCH   5   7
ATOM      7  C   ALA A   6      -9.826  20.207  21.002  0.00  0.00    +0.241 C 
ATOM      8  O   ALA A   6     -10.656  21.081  20.700  0.00  0.00    -0.273 OA
ATOM      9  N   ASP A   7      -8.759  19.918  20.257  0.00  0.00    -0.297 N 
ATOM     10  H   ASP A   7      -8.062  19.237  20.621  0.00  0.00    +0.150 HD
BRANCH   9  11
ATOM     11  CA  ASP A   7      -8.534  20.524  18.947  0.00  0.00    +0.160 C 
BRANCH  11  12
ATOM     12  C   ASP A   7      -9.495  19.932  17.944  0.00  0.00    +0.241 C 
ATOM     13  N   ASN A   8      -9.882  18.672  18.175  0.00  0.00    -0.297 N 
ATOM     14  H   ASN A   8      -9.640  18.246  19.092  0.00  0.00    +0.150 HD
ATOM     15  O   ASP A   7      -9.850  20.600  16.974  0.00  0.00    -0.273 OA
BRANCH  13  16
ATOM     16  CA  ASN A   8     -10.623  17.861  17.215  0.00  0.00    +0.158 C 
BRANCH  16  17
ATOM     17  C   ASN A   8     -11.956  17.396  17.798  0.00  0.00    +0.241 C 
ATOM     18  O   ASN A   8     -12.135  17.361  19.028  0.00  0.00    -0.273 OA
ATOM     19  N   THR A   9     -12.876  17.030  16.906  0.00  0.00    -0.295 N 
ATOM     20  H   THR A   9     -12.681  17.179  15.895  0.00  0.00    +0.150 HD
BRANCH  19  21
ATOM     21  CA  THR A   9     -14.142  16.431  17.293  0.00  0.00    +0.176 C 
BRANCH  21  22
ATOM     22  C   THR A   9     -14.031  14.909  17.212  0.00  0.00    +0.243 C 
ATOM     23  N   VAL A  10     -14.328  14.239  18.322  0.00  0.00    -0.298 N 
ATOM     24  H   VAL A  10     -14.679  14.761  19.150  0.00  0.00    +0.150 HD
ATOM     25  O   THR A   9     -13.648  14.360  16.171  0.00  0.00    -0.273 OA
BRANCH  23  26
ATOM     26  CA  VAL A  10     -14.173  12.781  18.410  0.00  0.00    +0.137 C 
BRANCH  26  27
ATOM     27  CB  VAL A  10     -12.989  12.308  19.329  0.00  0.00    +0.026 C 
ATOM     28  CG2 VAL A  10     -11.763  13.179  19.140  0.00  0.00    +0.002 C 
ATOM     29  CG1 VAL A  10     -12.640  10.855  19.009  0.00  0.00    +0.002 C 
ENDBRANCH  26  27
BRANCH  26  30
ATOM     30  C   VAL A  10     -15.463  12.130  18.878  0.00  0.00    +0.227 C 
ATOM     31  O   VAL A  10     -15.990  12.467  19.943  0.00  0.00    -0.286 OA
ENDBRANCH  26  30
ENDBRANCH  23  26
ENDBRANCH  21  22
BRANCH  21  32
ATOM     32  CB  THR A   9     -15.278  16.978  16.423  0.00  0.00    +0.137 C 
ATOM     33  CG2 THR A   9     -16.634  16.224  16.686  0.00  0.00    +0.034 C 
BRANCH  32  34
ATOM     34  OG1 THR A   9     -15.419  18.378  16.703  0.00  0.00    -0.382 OA
ATOM     35  HG1 THR A   9     -14.571  18.843  16.490  0.00  0.00    +0.210 HD
ENDBRANCH  32  34
ENDBRANCH  21  32
ENDBRANCH  19  21
ENDBRANCH  16  17
BRANCH  16  36
ATOM     36  CB  ASN A   8      -9.813  16.614  16.817  0.00  0.00    +0.114 C 
BRANCH  36  37
ATOM     37  CG  ASN A   8      -8.380  16.933  16.398  0.00  0.00    +0.222 C 
ATOM     38  ND2 ASN A   8      -7.419  16.601  17.263  0.00  0.00    -0.329 N 
ATOM     39 HD21 ASN A   8      -7.667  16.167  18.175  0.00  0.00    +0.145 HD
ATOM     40 HD22 ASN A   8      -6.422  16.777  17.025  0.00  0.00    +0.145 HD
ATOM     41  OD1 ASN A   8      -8.138  17.449  15.307  0.00  0.00    -0.275 OA
ENDBRANCH  36  37
ENDBRANCH  16  36
ENDBRANCH  13  16
ENDBRANCH  11  12
BRANCH  11  42
ATOM     42  CB  ASP A   7      -7.115  20.242  18.421  0.00  0.00    +0.143 C 
BRANCH  42  43
ATOM     43  CG  ASP A   7      -6.014  20.768  19.339  0.00  0.00    +0.367 C 
ATOM     44  OD2 ASP A   7      -6.251  21.736  20.108  0.00  0.00    -0.246 OA
ATOM     45  OD1 ASP A   7      -4.899  20.202  19.274  0.00  0.00    -0.246 OA
ENDBRANCH  42  43
ENDBRANCH  11  42
ENDBRANCH   9  11
ENDBRANCH   5   7
ENDBRANCH   3   5
BRANCH   1  46
ATOM     46  CA  GLY A   5      -9.487  21.537  25.445  0.00  0.00    +0.176 C 
BRANCH  46  48
ATOM     47  C   THR A   4     -11.017  23.329  24.725  0.00  0.00    +0.243 C 
ATOM     48  N   GLY A   5     -10.778  22.219  25.434  0.00  0.00    -0.295 N 
ATOM     49  H   GLY A   5     -11.551  21.822  26.006  0.00  0.00    +0.150 HD
ATOM     50  O   THR A   4     -10.142  23.952  24.123  0.00  0.00    -0.273 OA
BRANCH  47  51
ATOM     51  CA  THR A   4     -12.474  23.811  24.669  0.00  0.00    +0.176 C 
BRANCH  51  53
ATOM     52  C   ASP A   3     -13.630  21.663  24.355  0.00  0.00    +0.241 C 
ATOM     53  N   THR A   4     -13.387  22.759  25.074  0.00  0.00    -0.295 N 
ATOM     54  H   THR A   4     -13.883  22.866  25.982  0.00  0.00    +0.150 HD
ATOM     55  O   ASP A   3     -13.047  21.391  23.305  0.00  0.00    -0.273 OA
BRANCH  52  56
ATOM     56  CA  ASP A   3     -14.696  20.724  24.938  0.00  0.00    +0.160 C 
BRANCH  56  59
ATOM     57  C   LEU A   2     -17.082  21.127  25.154  0.00  0.00    +0.241 C 
ATOM     58  O   LEU A   2     -17.037  21.371  26.372  0.00  0.00    -0.273 OA
ATOM     59  N   ASP A   3     -16.006  20.996  24.384  0.00  0.00    -0.297 N 
ATOM     60  H   ASP A   3     -16.108  21.092  23.353  0.00  0.00    +0.150 HD
BRANCH  57  61
ATOM     61  CA  LEU A   2     -18.420  20.976  24.444  0.00  0.00    +0.149 C 
BRANCH  61  63
ATOM     62  C   LEU A   1     -18.703  18.551  24.614  0.00  0.00    +0.238 C 
ATOM     63  N   LEU A   2     -19.099  19.779  24.963  0.00  0.00    -0.297 N 
ATOM     64  H   LEU A   2     -19.902  19.890  25.614  0.00  0.00    +0.150 HD
ATOM     65  O   LEU A   1     -17.912  18.344  23.688  0.00  0.00    -0.274 OA
BRANCH  62  66
ATOM     66  CA  LEU A   1     -19.308  17.377  25.400  0.00  0.00    +0.145 C 
BRANCH  66  67
ATOM     67  N   LEU A   1     -19.963  16.452  24.503  0.00  0.00    -0.238 NA
ATOM     68  H   LEU A   1     -19.380  15.710  24.065  0.00  0.00    +0.142 HD
ENDBRANCH  66  67
BRANCH  66  69
ATOM     69  CB  LEU A   1     -18.238  16.593  26.171  0.00  0.00    +0.026 C 
BRANCH  69  70
ATOM     70  CG  LEU A   1     -17.472  17.171  27.361  0.00  0.00    +0.002 C 
ATOM     71  CD2 LEU A   1     -18.401  17.538  28.507  0.00  0.00    +0.000 C 
ATOM     72  CD1 LEU A   1     -16.403  16.149  27.811  0.00  0.00    +0.000 C 
ENDBRANCH  69  70
ENDBRANCH  66  69
ENDBRANCH  62  66
ENDBRANCH  61  63
BRANCH  61  73
ATOM     73  CB  LEU A   2     -19.253  22.240  24.647  0.00  0.00    +0.029 C 
BRANCH  73  74
ATOM     74  CG  LEU A   2     -20.662  22.297  24.061  0.00  0.00    +0.002 C 
ATOM     75  CD2 LEU A   2     -21.266  23.656  24.429  0.00  0.00    +0.000 C 
ATOM     76  CD1 LEU A   2     -20.677  22.062  22.535  0.00  0.00    +0.000 C 
ENDBRANCH  73  74
ENDBRANCH  61  73
ENDBRANCH  57  61
ENDBRANCH  56  59
BRANCH  56  77
ATOM     77  CB  ASP A   3     -14.351  19.250  24.703  0.00  0.00    +0.143 C 
BRANCH  77  78
ATOM     78  CG  ASP A   3     -13.057  18.827  25.369  0.00  0.00    +0.367 C 
ATOM     79  OD2 ASP A   3     -12.324  19.671  25.928  0.00  0.00    -0.246 OA
ATOM     80  OD1 ASP A   3     -12.767  17.620  25.321  0.00  0.00    -0.246 OA
ENDBRANCH  77  78
ENDBRANCH  56  77
ENDBRANCH  52  56
ENDBRANCH  51  53
BRANCH  51  81
ATOM     81  CB  THR A   4     -12.641  25.057  25.561  0.00  0.00    +0.137 C 
ATOM     82  CG2 THR A   4     -14.008  25.764  25.323  0.00  0.00    +0.034 C 
BRANCH  81  83
ATOM     83  OG1 THR A   4     -12.554  24.662  26.940  0.00  0.00    -0.382 OA
ATOM     84  HG1 THR A   4     -13.271  24.009  27.141  0.00  0.00    +0.210 HD
ENDBRANCH  81  83
ENDBRANCH  51  81
ENDBRANCH  47  51
ENDBRANCH  46  48
ENDBRANCH   1  46
TORSDOF 35
REMARK  Name = ../refined-set-2016/2q64/2q64_pocket.pdb
REMARK  224 active torsions:
REMARK  status: ('A' for Active; 'I' for Inactive)
REMARK    1  A    between atoms: _1  and  _3
REMARK    2  A    between atoms: _3  and  _4
REMARK    3  A    between atoms: _3  and  _6
REMARK    4  A    between atoms: _6  and  _7
REMARK    5  A    between atoms: _7  and  _8
REMARK    6  A    between atoms: _8  and  _9
REMARK    7  A    between atoms: _18  and  _20
REMARK    8  A    between atoms: _20  and  _21
REMARK    9  A    between atoms: _20  and  _23
REMARK   10  A    between atoms: _23  and  _24
REMARK   11  A    between atoms: _27  and  _29
REMARK   12  A    between atoms: _29  and  _30
REMARK   13  A    between atoms: _29  and  _32
REMARK   14  A    between atoms: _32  and  _33
REMARK   15  A    between atoms: _36  and  _38
REMARK   16  A    between atoms: _38  and  _39
REMARK   17  A    between atoms: _38  and  _41
REMARK   18  A    between atoms: _41  and  _42
REMARK   19  A    between atoms: _45  and  _47
REMARK   20  A    between atoms: _47  and  _48
REMARK   21  A    between atoms: _47  and  _50
REMARK   22  A    between atoms: _50  and  _51
REMARK   23  A    between atoms: _54  and  _56
REMARK   24  A    between atoms: _56  and  _57
REMARK   25  A    between atoms: _59  and  _61
REMARK   26  A    between atoms: _61  and  _62
REMARK   27  A    between atoms: _65  and  _67
REMARK   28  A    between atoms: _67  and  _68
REMARK   29  A    between atoms: _67  and  _70
REMARK   30  A    between atoms: _70  and  _71
REMARK   31  A    between atoms: _74  and  _76
REMARK   32  A    between atoms: _76  and  _77
REMARK   33  A    between atoms: _76  and  _79
REMARK   34  A    between atoms: _79  and  _80
REMARK   35  A    between atoms: _85  and  _87
REMARK   36  A    between atoms: _87  and  _88
REMARK   37  A    between atoms: _87  and  _90
REMARK   38  A    between atoms: _90  and  _91
REMARK   39  A    between atoms: _94  and  _96
REMARK   40  A    between atoms: _96  and  _97
REMARK   41  A    between atoms: _96  and  _99
REMARK   42  A    between atoms: _102  and  _104
REMARK   43  A    between atoms: _104  and  _105
REMARK   44  A    between atoms: _104  and  _107
REMARK   45  A    between atoms: _107  and  _108
REMARK   46  A    between atoms: _108  and  _109
REMARK   47  A    between atoms: _109  and  _110
REMARK   48  A    between atoms: _110  and  _111
REMARK   49  A    between atoms: _115  and  _117
REMARK   50  A    between atoms: _117  and  _118
REMARK   51  A    between atoms: _117  and  _120
REMARK   52  A    between atoms: _120  and  _121
REMARK   53  A    between atoms: _121  and  _122
REMARK   54  A    between atoms: _124  and  _126
REMARK   55  A    between atoms: _126  and  _127
REMARK   56  A    between atoms: _126  and  _129
REMARK   57  A    between atoms: _129  and  _130
REMARK   58  A    between atoms: _133  and  _135
REMARK   59  A    between atoms: _135  and  _136
REMARK   60  A    between atoms: _138  and  _140
REMARK   61  A    between atoms: _140  and  _141
REMARK   62  A    between atoms: _145  and  _146
REMARK   63  A    between atoms: _145  and  _148
REMARK   64  A    between atoms: _148  and  _149
REMARK   65  A    between atoms: _152  and  _154
REMARK   66  A    between atoms: _154  and  _155
REMARK   67  A    between atoms: _157  and  _159
REMARK   68  A    between atoms: _159  and  _160
REMARK   69  A    between atoms: _162  and  _164
REMARK   70  A    between atoms: _164  and  _165
REMARK   71  A    between atoms: _164  and  _167
REMARK   72  A    between atoms: _167  and  _168
REMARK   73  A    between atoms: _171  and  _173
REMARK   74  A    between atoms: _173  and  _174
REMARK   75  A    between atoms: _173  and  _176
REMARK   76  A    between atoms: _179  and  _181
REMARK   77  A    between atoms: _181  and  _182
REMARK   78  A    between atoms: _181  and  _184
REMARK   79  A    between atoms: _184  and  _185
REMARK   80  A    between atoms: _189  and  _190
REMARK   81  A    between atoms: _195  and  _197
REMARK   82  A    between atoms: _197  and  _198
REMARK   83  A    between atoms: _197  and  _200
REMARK   84  A    between atoms: _200  and  _201
REMARK   85  A    between atoms: _205  and  _206
REMARK   86  A    between atoms: _211  and  _213
REMARK   87  A    between atoms: _213  and  _214
REMARK   88  A    between atoms: _213  and  _216
REMARK   89  A    between atoms: _219  and  _221
REMARK   90  A    between atoms: _221  and  _222
REMARK   91  A    between atoms: _221  and  _224
REMARK   92  A    between atoms: _224  and  _225
REMARK   93  A    between atoms: _230  and  _232
REMARK   94  A    between atoms: _232  and  _233
REMARK   95  A    between atoms: _232  and  _235
REMARK   96  A    between atoms: _235  and  _236
REMARK   97  A    between atoms: _239  and  _241
REMARK   98  A    between atoms: _241  and  _242
REMARK   99  A    between atoms: _244  and  _246
REMARK  100  A    between atoms: _246  and  _247
REMARK  101  A    between atoms: _246  and  _249
REMARK  102  A    between atoms: _249  and  _250
REMARK  103  A    between atoms: _250  and  _251
REMARK  104  A    between atoms: _251  and  _252
REMARK  105  A    between atoms: _261  and  _263
REMARK  106  A    between atoms: _263  and  _264
REMARK  107  A    between atoms: _263  and  _266
REMARK  108  A    between atoms: _266  and  _267
REMARK  109  A    between atoms: _272  and  _274
REMARK  110  A    between atoms: _274  and  _275
REMARK  111  A    between atoms: _274  and  _277
REMARK  112  A    between atoms: _277  and  _278
REMARK  113  A    between atoms: _278  and  _279
REMARK  114  A    between atoms: _279  and  _280
REMARK  115  A    between atoms: _289  and  _291
REMARK  116  A    between atoms: _291  and  _292
REMARK  117  A    between atoms: _291  and  _294
REMARK  118  A    between atoms: _294  and  _295
REMARK  119  A    between atoms: _298  and  _300
REMARK  120  A    between atoms: _300  and  _301
REMARK  121  A    between atoms: _300  and  _303
REMARK  122  A    between atoms: _303  and  _304
REMARK  123  A    between atoms: _307  and  _309
REMARK  124  A    between atoms: _309  and  _310
REMARK  125  A    between atoms: _309  and  _312
REMARK  126  A    between atoms: _312  and  _313
REMARK  127  A    between atoms: _316  and  _318
REMARK  128  A    between atoms: _318  and  _319
REMARK  129  A    between atoms: _318  and  _321
REMARK  130  A    between atoms: _321  and  _322
REMARK  131  A    between atoms: _325  and  _327
REMARK  132  A    between atoms: _327  and  _328
REMARK  133  A    between atoms: _330  and  _332
REMARK  134  A    between atoms: _332  and  _333
REMARK  135  A    between atoms: _336  and  _338
REMARK  136  A    between atoms: _338  and  _339
REMARK  137  A    between atoms: _338  and  _341
REMARK  138  A    between atoms: _341  and  _342
REMARK  139  A    between atoms: _345  and  _347
REMARK  140  A    between atoms: _347  and  _348
REMARK  141  A    between atoms: _347  and  _350
REMARK  142  A    between atoms: _350  and  _351
REMARK  143  A    between atoms: _356  and  _358
REMARK  144  A    between atoms: _358  and  _359
REMARK  145  A    between atoms: _358  and  _361
REMARK  146  A    between atoms: _361  and  _362
REMARK  147  A    between atoms: _365  and  _367
REMARK  148  A    between atoms: _367  and  _368
REMARK  149  A    between atoms: _367  and  _370
REMARK  150  A    between atoms: _373  and  _375
REMARK  151  A    between atoms: _375  and  _376
REMARK  152  A    between atoms: _375  and  _378
REMARK  153  A    between atoms: _378  and  _379
REMARK  154  A    between atoms: _382  and  _384
REMARK  155  A    between atoms: _384  and  _385
REMARK  156  A    between atoms: _384  and  _387
REMARK  157  A    between atoms: _387  and  _388
REMARK  158  A    between atoms: _388  and  _389
REMARK  159  A    between atoms: _389  and  _390
REMARK  160  A    between atoms: _390  and  _391
REMARK  161  A    between atoms: _395  and  _397
REMARK  162  A    between atoms: _397  and  _398
REMARK  163  A    between atoms: _397  and  _400
REMARK  164  A    between atoms: _400  and  _401
REMARK  165  A    between atoms: _401  and  _402
REMARK  166  A    between atoms: _404  and  _406
REMARK  167  A    between atoms: _406  and  _407
REMARK  168  A    between atoms: _406  and  _409
REMARK  169  A    between atoms: _409  and  _410
REMARK  170  A    between atoms: _413  and  _415
REMARK  171  A    between atoms: _415  and  _416
REMARK  172  A    between atoms: _418  and  _420
REMARK  173  A    between atoms: _420  and  _421
REMARK  174  A    between atoms: _423  and  _425
REMARK  175  A    between atoms: _425  and  _426
REMARK  176  A    between atoms: _425  and  _428
REMARK  177  A    between atoms: _428  and  _429
REMARK  178  A    between atoms: _432  and  _434
REMARK  179  A    between atoms: _434  and  _435
REMARK  180  A    between atoms: _437  and  _439
REMARK  181  A    between atoms: _439  and  _440
REMARK  182  A    between atoms: _442  and  _444
REMARK  183  A    between atoms: _444  and  _445
REMARK  184  A    between atoms: _444  and  _447
REMARK  185  A    between atoms: _447  and  _448
REMARK  186  A    between atoms: _454  and  _456
REMARK  187  A    between atoms: _456  and  _457
REMARK  188  A    between atoms: _456  and  _459
REMARK  189  A    between atoms: _459  and  _460
REMARK  190  A    between atoms: _463  and  _465
REMARK  191  A    between atoms: _465  and  _466
REMARK  192  A    between atoms: _465  and  _468
REMARK  193  A    between atoms: _471  and  _473
REMARK  194  A    between atoms: _473  and  _474
REMARK  195  A    between atoms: _473  and  _476
REMARK  196  A    between atoms: _476  and  _477
REMARK  197  A    between atoms: _480  and  _482
REMARK  198  A    between atoms: _482  and  _483
REMARK  199  A    between atoms: _482  and  _485
REMARK  200  A    between atoms: _485  and  _486
REMARK  201  A    between atoms: _490  and  _491
REMARK  202  A    between atoms: _496  and  _498
REMARK  203  A    between atoms: _498  and  _499
REMARK  204  A    between atoms: _498  and  _501
REMARK  205  A    between atoms: _504  and  _506
REMARK  206  A    between atoms: _506  and  _507
REMARK  207  A    between atoms: _506  and  _509
REMARK  208  A    between atoms: _509  and  _510
REMARK  209  A    between atoms: _515  and  _517
REMARK  210  A    between atoms: _517  and  _518
REMARK  211  A    between atoms: _517  and  _520
REMARK  212  A    between atoms: _520  and  _521
REMARK  213  A    between atoms: _524  and  _526
REMARK  214  A    between atoms: _526  and  _527
REMARK  215  A    between atoms: _526  and  _529
REMARK  216  A    between atoms: _529  and  _530
REMARK  217  A    between atoms: _533  and  _535
REMARK  218  A    between atoms: _535  and  _536
REMARK  219  A    between atoms: _538  and  _540
REMARK  220  A    between atoms: _540  and  _541
REMARK  221  A    between atoms: _540  and  _543
REMARK  222  A    between atoms: _543  and  _544
REMARK  223  A    between atoms: _544  and  _545
REMARK  224  A    between atoms: _545  and  _546
REMARK                            x       y       z     vdW  Elec       q    Type
REMARK                         _______ _______ _______ _____ _____    ______ ____
ROOT
ATOM      1  C   ILE A   3      -4.443  11.082  19.590  0.00  0.00    +0.241 C 
ATOM      2  N   GLY A   4      -3.780  12.053  20.210  0.00  0.00    -0.295 N 
ATOM      3  H   GLY A   4      -3.609  12.949  19.710  0.00  0.00    +0.150 HD
ATOM      4  O   ILE A   3      -4.785  10.037  20.145  0.00  0.00    -0.273 OA
ENDROOT
BRANCH   2   5
ATOM      5  CA  GLY A   4      -3.286  11.895  21.573  0.00  0.00    +0.176 C 
BRANCH   5   6
ATOM      6  C   GLY A   4      -4.119  12.561  22.648  0.00  0.00    +0.243 C 
ATOM      7  N   GLY A   5      -4.402  11.802  23.707  0.00  0.00    -0.295 N 
ATOM      8  H   GLY A   5      -4.160  10.791  23.672  0.00  0.00    +0.150 HD
ATOM      9  O   GLY A   4      -4.490  13.731  22.524  0.00  0.00    -0.273 OA
BRANCH   7  10
ATOM     10  CA  GLY A   5      -5.039  12.327  24.919  0.00  0.00    +0.176 C 
BRANCH  10  11
ATOM     11  C   GLY A   5      -4.070  12.398  26.089  0.00  0.00    +0.246 C 
ATOM     12  N   ILE A   6      -4.567  12.116  27.296  0.00  0.00    -0.282 N 
ATOM     13  CA  ILE A   6      -3.864  12.447  28.551  0.00  0.00    +0.081 C 
ATOM     14  H   ILE A   6      -5.491  11.642  27.354  0.00  0.00    +0.155 HD
ATOM     15  O   GLY A   5      -2.891  12.653  25.887  0.00  0.00    -0.273 OA
BRANCH  13  16
ATOM     16  C   ILE A   6      -2.641  11.599  29.035  0.00  0.00    +0.256 C 
ATOM     17  O   ILE A   6      -1.613  12.196  29.431  0.00  0.00    -0.269 OA
ATOM     18  N   GLY A   7      -2.668  10.258  29.004  0.00  0.00    -0.292 N 
ATOM     19  H   GLY A   7      -1.904   9.774  29.518  0.00  0.00    +0.150 HD
BRANCH  18  20
ATOM     20  CA  GLY A   7      -3.639   9.394  28.337  0.00  0.00    +0.176 C 
BRANCH  20  21
ATOM     21  C   GLY A   7      -2.855   8.321  27.577  0.00  0.00    +0.243 C 
ATOM     22  O   GLY A   7      -2.551   7.245  28.098  0.00  0.00    -0.273 OA
ATOM     23  N   GLY A   8      -2.478   8.670  26.356  0.00  0.00    -0.296 N 
ATOM     24  H   GLY A   8      -2.572   9.669  26.083  0.00  0.00    +0.150 HD
BRANCH  23  25
ATOM     25  CA  GLY A   8      -1.945   7.750  25.381  0.00  0.00    +0.163 C 
BRANCH  25  26
ATOM     26  C   GLY A   8      -2.578   8.162  24.069  0.00  0.00    +0.229 C 
ATOM     27  O   GLY A   8      -3.026   9.298  23.923  0.00  0.00    -0.286 OA
ENDBRANCH  25  26
ENDBRANCH  23  25
ENDBRANCH  20  21
ENDBRANCH  18  20
ENDBRANCH  13  16
BRANCH  13  28
ATOM     28  CB  ILE A   6      -4.870  12.796  29.729  0.00  0.00    +0.041 C 
ATOM     29  CG2 ILE A   6      -5.669  11.596  30.150  0.00  0.00    +0.006 C 
BRANCH  28  30
ATOM     30  CG1 ILE A   6      -4.140  13.390  30.943  0.00  0.00    +0.006 C 
ATOM     31  CD1 ILE A   6      -4.141  14.886  31.013  0.00  0.00    +0.000 C 
ENDBRANCH  28  30
ENDBRANCH  13  28
ENDBRANCH  10  11
ENDBRANCH   7  10
ENDBRANCH   5   6
ENDBRANCH   2   5
BRANCH   1  32
ATOM     32  CA  ILE A   3      -4.780  11.343  18.122  0.00  0.00    +0.149 C 
BRANCH  32  34
ATOM     33  C   MET A   2      -4.000  10.075  16.186  0.00  0.00    +0.241 C 
ATOM     34  N   ILE A   3      -4.754  10.136  17.282  0.00  0.00    -0.297 N 
ATOM     35  H   ILE A   3      -5.335   9.316  17.549  0.00  0.00    +0.150 HD
ATOM     36  O   MET A   2      -3.314  11.019  15.785  0.00  0.00    -0.273 OA
BRANCH  33  37
ATOM     37  CA  MET A   2      -4.021   8.764  15.416  0.00  0.00    +0.149 C 
BRANCH  37  39
ATOM     38  C   LYS A   1      -5.205   8.393  13.314  0.00  0.00    +0.238 C 
ATOM     39  N   MET A   2      -4.233   8.996  13.984  0.00  0.00    -0.297 N 
ATOM     40  H   MET A   2      -3.603   9.652  13.480  0.00  0.00    +0.150 HD
ATOM     41  O   LYS A   1      -5.879   7.486  13.796  0.00  0.00    -0.274 OA
BRANCH  38  42
ATOM     42  CA  LYS A   1      -5.447   8.869  11.884  0.00  0.00    +0.145 C 
BRANCH  42  43
ATOM     43  N   LYS A   1      -5.950   7.746  11.082  0.00  0.00    -0.238 NA
ATOM     44  H   LYS A   1      -6.376   6.936  11.576  0.00  0.00    +0.142 HD
ENDBRANCH  42  43
BRANCH  42  45
ATOM     45  CB  LYS A   1      -6.455  10.034  11.883  0.00  0.00    +0.026 C 
BRANCH  45  46
ATOM     46  CG  LYS A   1      -5.862  11.410  11.555  0.00  0.00    -0.000 C 
BRANCH  46  47
ATOM     47  CD  LYS A   1      -5.532  12.248  12.796  0.00  0.00    -0.024 C 
BRANCH  47  48
ATOM     48  CE  LYS A   1      -4.920  13.608  12.405  0.00  0.00    -0.086 C 
BRANCH  48  49
ATOM     49  NZ  LYS A   1      -4.537  14.439  13.595  0.00  0.00    +0.380 N 
ATOM     50  HZ1 LYS A   1      -5.382  14.625  14.173  0.00  0.00    -0.089 HD
ATOM     51  HZ2 LYS A   1      -3.833  13.925  14.163  0.00  0.00    -0.089 HD
ATOM     52  HZ3 LYS A   1      -4.132  15.340  13.271  0.00  0.00    -0.089 HD
ENDBRANCH  48  49
ENDBRANCH  47  48
ENDBRANCH  46  47
ENDBRANCH  45  46
ENDBRANCH  42  45
ENDBRANCH  38  42
ENDBRANCH  37  39
BRANCH  37  53
ATOM     53  CB  MET A   2      -2.734   7.975  15.662  0.00  0.00    +0.041 C 
BRANCH  53  54
ATOM     54  CG  MET A   2      -2.962   6.480  15.757  0.00  0.00    +0.060 C 
BRANCH  54  55
ATOM     55  SD  MET A   2      -1.442   5.559  15.974  0.00  0.00    -0.139 S 
ATOM     56  CE  MET A   2      -0.863   5.402  14.276  0.00  0.00    +0.069 C 
ENDBRANCH  54  55
ENDBRANCH  53  54
ENDBRANCH  37  53
ENDBRANCH  33  37
ENDBRANCH  32  34
BRANCH  32  57
ATOM     57  CB  ILE A   3      -6.120  12.096  18.030  0.00  0.00    +0.027 C 
ATOM     58  CG2 ILE A   3      -6.259  12.765  16.674  0.00  0.00    +0.002 C 
BRANCH  57  59
ATOM     59  CG1 ILE A   3      -7.278  11.137  18.274  0.00  0.00    +0.002 C 
ATOM     60  CD1 ILE A   3      -8.275  11.663  19.209  0.00  0.00    +0.000 C 
ENDBRANCH  57  59
ENDBRANCH  32  57
ENDBRANCH   1  32
TORSDOF 27
REMARK  Name = ../refined-set-2016/2q64/2q64_pocket.pdb
REMARK  224 active torsions:
REMARK  status: ('A' for Active; 'I' for Inactive)
REMARK    1  A    between atoms: _1  and  _3
REMARK    2  A    between atoms: _3  and  _4
REMARK    3  A    between atoms: _3  and  _6
REMARK    4  A    between atoms: _6  and  _7
REMARK    5  A    between atoms: _7  and  _8
REMARK    6  A    between atoms: _8  and  _9
REMARK    7  A    between atoms: _18  and  _20
REMARK    8  A    between atoms: _20  and  _21
REMARK    9  A    between atoms: _20  and  _23
REMARK   10  A    between atoms: _23  and  _24
REMARK   11  A    between atoms: _27  and  _29
REMARK   12  A    between atoms: _29  and  _30
REMARK   13  A    between atoms: _29  and  _32
REMARK   14  A    between atoms: _32  and  _33
REMARK   15  A    between atoms: _36  and  _38
REMARK   16  A    between atoms: _38  and  _39
REMARK   17  A    between atoms: _38  and  _41
REMARK   18  A    between atoms: _41  and  _42
REMARK   19  A    between atoms: _45  and  _47
REMARK   20  A    between atoms: _47  and  _48
REMARK   21  A    between atoms: _47  and  _50
REMARK   22  A    between atoms: _50  and  _51
REMARK   23  A    between atoms: _54  and  _56
REMARK   24  A    between atoms: _56  and  _57
REMARK   25  A    between atoms: _59  and  _61
REMARK   26  A    between atoms: _61  and  _62
REMARK   27  A    between atoms: _65  and  _67
REMARK   28  A    between atoms: _67  and  _68
REMARK   29  A    between atoms: _67  and  _70
REMARK   30  A    between atoms: _70  and  _71
REMARK   31  A    between atoms: _74  and  _76
REMARK   32  A    between atoms: _76  and  _77
REMARK   33  A    between atoms: _76  and  _79
REMARK   34  A    between atoms: _79  and  _80
REMARK   35  A    between atoms: _85  and  _87
REMARK   36  A    between atoms: _87  and  _88
REMARK   37  A    between atoms: _87  and  _90
REMARK   38  A    between atoms: _90  and  _91
REMARK   39  A    between atoms: _94  and  _96
REMARK   40  A    between atoms: _96  and  _97
REMARK   41  A    between atoms: _96  and  _99
REMARK   42  A    between atoms: _102  and  _104
REMARK   43  A    between atoms: _104  and  _105
REMARK   44  A    between atoms: _104  and  _107
REMARK   45  A    between atoms: _107  and  _108
REMARK   46  A    between atoms: _108  and  _109
REMARK   47  A    between atoms: _109  and  _110
REMARK   48  A    between atoms: _110  and  _111
REMARK   49  A    between atoms: _115  and  _117
REMARK   50  A    between atoms: _117  and  _118
REMARK   51  A    between atoms: _117  and  _120
REMARK   52  A    between atoms: _120  and  _121
REMARK   53  A    between atoms: _121  and  _122
REMARK   54  A    between atoms: _124  and  _126
REMARK   55  A    between atoms: _126  and  _127
REMARK   56  A    between atoms: _126  and  _129
REMARK   57  A    between atoms: _129  and  _130
REMARK   58  A    between atoms: _133  and  _135
REMARK   59  A    between atoms: _135  and  _136
REMARK   60  A    between atoms: _138  and  _140
REMARK   61  A    between atoms: _140  and  _141
REMARK   62  A    between atoms: _145  and  _146
REMARK   63  A    between atoms: _145  and  _148
REMARK   64  A    between atoms: _148  and  _149
REMARK   65  A    between atoms: _152  and  _154
REMARK   66  A    between atoms: _154  and  _155
REMARK   67  A    between atoms: _157  and  _159
REMARK   68  A    between atoms: _159  and  _160
REMARK   69  A    between atoms: _162  and  _164
REMARK   70  A    between atoms: _164  and  _165
REMARK   71  A    between atoms: _164  and  _167
REMARK   72  A    between atoms: _167  and  _168
REMARK   73  A    between atoms: _171  and  _173
REMARK   74  A    between atoms: _173  and  _174
REMARK   75  A    between atoms: _173  and  _176
REMARK   76  A    between atoms: _179  and  _181
REMARK   77  A    between atoms: _181  and  _182
REMARK   78  A    between atoms: _181  and  _184
REMARK   79  A    between atoms: _184  and  _185
REMARK   80  A    between atoms: _189  and  _190
REMARK   81  A    between atoms: _195  and  _197
REMARK   82  A    between atoms: _197  and  _198
REMARK   83  A    between atoms: _197  and  _200
REMARK   84  A    between atoms: _200  and  _201
REMARK   85  A    between atoms: _205  and  _206
REMARK   86  A    between atoms: _211  and  _213
REMARK   87  A    between atoms: _213  and  _214
REMARK   88  A    between atoms: _213  and  _216
REMARK   89  A    between atoms: _219  and  _221
REMARK   90  A    between atoms: _221  and  _222
REMARK   91  A    between atoms: _221  and  _224
REMARK   92  A    between atoms: _224  and  _225
REMARK   93  A    between atoms: _230  and  _232
REMARK   94  A    between atoms: _232  and  _233
REMARK   95  A    between atoms: _232  and  _235
REMARK   96  A    between atoms: _235  and  _236
REMARK   97  A    between atoms: _239  and  _241
REMARK   98  A    between atoms: _241  and  _242
REMARK   99  A    between atoms: _244  and  _246
REMARK  100  A    between atoms: _246  and  _247
REMARK  101  A    between atoms: _246  and  _249
REMARK  102  A    between atoms: _249  and  _250
REMARK  103  A    between atoms: _250  and  _251
REMARK  104  A    between atoms: _251  and  _252
REMARK  105  A    between atoms: _261  and  _263
REMARK  106  A    between atoms: _263  and  _264
REMARK  107  A    between atoms: _263  and  _266
REMARK  108  A    between atoms: _266  and  _267
REMARK  109  A    between atoms: _272  and  _274
REMARK  110  A    between atoms: _274  and  _275
REMARK  111  A    between atoms: _274  and  _277
REMARK  112  A    between atoms: _277  and  _278
REMARK  113  A    between atoms: _278  and  _279
REMARK  114  A    between atoms: _279  and  _280
REMARK  115  A    between atoms: _289  and  _291
REMARK  116  A    between atoms: _291  and  _292
REMARK  117  A    between atoms: _291  and  _294
REMARK  118  A    between atoms: _294  and  _295
REMARK  119  A    between atoms: _298  and  _300
REMARK  120  A    between atoms: _300  and  _301
REMARK  121  A    between atoms: _300  and  _303
REMARK  122  A    between atoms: _303  and  _304
REMARK  123  A    between atoms: _307  and  _309
REMARK  124  A    between atoms: _309  and  _310
REMARK  125  A    between atoms: _309  and  _312
REMARK  126  A    between atoms: _312  and  _313
REMARK  127  A    between atoms: _316  and  _318
REMARK  128  A    between atoms: _318  and  _319
REMARK  129  A    between atoms: _318  and  _321
REMARK  130  A    between atoms: _321  and  _322
REMARK  131  A    between atoms: _325  and  _327
REMARK  132  A    between atoms: _327  and  _328
REMARK  133  A    between atoms: _330  and  _332
REMARK  134  A    between atoms: _332  and  _333
REMARK  135  A    between atoms: _336  and  _338
REMARK  136  A    between atoms: _338  and  _339
REMARK  137  A    between atoms: _338  and  _341
REMARK  138  A    between atoms: _341  and  _342
REMARK  139  A    between atoms: _345  and  _347
REMARK  140  A    between atoms: _347  and  _348
REMARK  141  A    between atoms: _347  and  _350
REMARK  142  A    between atoms: _350  and  _351
REMARK  143  A    between atoms: _356  and  _358
REMARK  144  A    between atoms: _358  and  _359
REMARK  145  A    between atoms: _358  and  _361
REMARK  146  A    between atoms: _361  and  _362
REMARK  147  A    between atoms: _365  and  _367
REMARK  148  A    between atoms: _367  and  _368
REMARK  149  A    between atoms: _367  and  _370
REMARK  150  A    between atoms: _373  and  _375
REMARK  151  A    between atoms: _375  and  _376
REMARK  152  A    between atoms: _375  and  _378
REMARK  153  A    between atoms: _378  and  _379
REMARK  154  A    between atoms: _382  and  _384
REMARK  155  A    between atoms: _384  and  _385
REMARK  156  A    between atoms: _384  and  _387
REMARK  157  A    between atoms: _387  and  _388
REMARK  158  A    between atoms: _388  and  _389
REMARK  159  A    between atoms: _389  and  _390
REMARK  160  A    between atoms: _390  and  _391
REMARK  161  A    between atoms: _395  and  _397
REMARK  162  A    between atoms: _397  and  _398
REMARK  163  A    between atoms: _397  and  _400
REMARK  164  A    between atoms: _400  and  _401
REMARK  165  A    between atoms: _401  and  _402
REMARK  166  A    between atoms: _404  and  _406
REMARK  167  A    between atoms: _406  and  _407
REMARK  168  A    between atoms: _406  and  _409
REMARK  169  A    between atoms: _409  and  _410
REMARK  170  A    between atoms: _413  and  _415
REMARK  171  A    between atoms: _415  and  _416
REMARK  172  A    between atoms: _418  and  _420
REMARK  173  A    between atoms: _420  and  _421
REMARK  174  A    between atoms: _423  and  _425
REMARK  175  A    between atoms: _425  and  _426
REMARK  176  A    between atoms: _425  and  _428
REMARK  177  A    between atoms: _428  and  _429
REMARK  178  A    between atoms: _432  and  _434
REMARK  179  A    between atoms: _434  and  _435
REMARK  180  A    between atoms: _437  and  _439
REMARK  181  A    between atoms: _439  and  _440
REMARK  182  A    between atoms: _442  and  _444
REMARK  183  A    between atoms: _444  and  _445
REMARK  184  A    between atoms: _444  and  _447
REMARK  185  A    between atoms: _447  and  _448
REMARK  186  A    between atoms: _454  and  _456
REMARK  187  A    between atoms: _456  and  _457
REMARK  188  A    between atoms: _456  and  _459
REMARK  189  A    between atoms: _459  and  _460
REMARK  190  A    between atoms: _463  and  _465
REMARK  191  A    between atoms: _465  and  _466
REMARK  192  A    between atoms: _465  and  _468
REMARK  193  A    between atoms: _471  and  _473
REMARK  194  A    between atoms: _473  and  _474
REMARK  195  A    between atoms: _473  and  _476
REMARK  196  A    between atoms: _476  and  _477
REMARK  197  A    between atoms: _480  and  _482
REMARK  198  A    between atoms: _482  and  _483
REMARK  199  A    between atoms: _482  and  _485
REMARK  200  A    between atoms: _485  and  _486
REMARK  201  A    between atoms: _490  and  _491
REMARK  202  A    between atoms: _496  and  _498
REMARK  203  A    between atoms: _498  and  _499
REMARK  204  A    between atoms: _498  and  _501
REMARK  205  A    between atoms: _504  and  _506
REMARK  206  A    between atoms: _506  and  _507
REMARK  207  A    between atoms: _506  and  _509
REMARK  208  A    between atoms: _509  and  _510
REMARK  209  A    between atoms: _515  and  _517
REMARK  210  A    between atoms: _517  and  _518
REMARK  211  A    between atoms: _517  and  _520
REMARK  212  A    between atoms: _520  and  _521
REMARK  213  A    between atoms: _524  and  _526
REMARK  214  A    between atoms: _526  and  _527
REMARK  215  A    between atoms: _526  and  _529
REMARK  216  A    between atoms: _529  and  _530
REMARK  217  A    between atoms: _533  and  _535
REMARK  218  A    between atoms: _535  and  _536
REMARK  219  A    between atoms: _538  and  _540
REMARK  220  A    between atoms: _540  and  _541
REMARK  221  A    between atoms: _540  and  _543
REMARK  222  A    between atoms: _543  and  _544
REMARK  223  A    between atoms: _544  and  _545
REMARK  224  A    between atoms: _545  and  _546
REMARK                            x       y       z     vdW  Elec       q    Type
REMARK                         _______ _______ _______ _____ _____    ______ ____
ROOT
ATOM      1  CA  ILE A   1      -6.272   6.142  20.076  0.00  0.00    +0.133 C 
ENDROOT
BRANCH   1   2
ATOM      2  N   ILE A   1      -5.286   7.047  20.662  0.00  0.00    -0.239 NA
ATOM      3  H   ILE A   1      -5.337   8.067  20.466  0.00  0.00    +0.142 HD
ENDBRANCH   1   2
BRANCH   1   4
ATOM      4  CB  ILE A   1      -7.713   6.321  20.647  0.00  0.00    +0.023 C 
ATOM      5  CG2 ILE A   1      -7.707   6.096  22.170  0.00  0.00    +0.002 C 
BRANCH   4   6
ATOM      6  CG1 ILE A   1      -8.339   7.653  20.211  0.00  0.00    +0.002 C 
ATOM      7  CD1 ILE A   1      -9.806   7.759  20.486  0.00  0.00    +0.000 C 
ENDBRANCH   4   6
ENDBRANCH   1   4
BRANCH   1   8
ATOM      8  C   ILE A   1      -6.232   6.183  18.543  0.00  0.00    +0.224 C 
ATOM      9  O   ILE A   1      -5.873   7.208  17.950  0.00  0.00    -0.287 OA
ENDBRANCH   1   8
TORSDOF 4
REMARK  Name = ../refined-set-2016/2q64/2q64_pocket.pdb
REMARK  224 active torsions:
REMARK  status: ('A' for Active; 'I' for Inactive)
REMARK    1  A    between atoms: _1  and  _3
REMARK    2  A    between atoms: _3  and  _4
REMARK    3  A    between atoms: _3  and  _6
REMARK    4  A    between atoms: _6  and  _7
REMARK    5  A    between atoms: _7  and  _8
REMARK    6  A    between atoms: _8  and  _9
REMARK    7  A    between atoms: _18  and  _20
REMARK    8  A    between atoms: _20  and  _21
REMARK    9  A    between atoms: _20  and  _23
REMARK   10  A    between atoms: _23  and  _24
REMARK   11  A    between atoms: _27  and  _29
REMARK   12  A    between atoms: _29  and  _30
REMARK   13  A    between atoms: _29  and  _32
REMARK   14  A    between atoms: _32  and  _33
REMARK   15  A    between atoms: _36  and  _38
REMARK   16  A    between atoms: _38  and  _39
REMARK   17  A    between atoms: _38  and  _41
REMARK   18  A    between atoms: _41  and  _42
REMARK   19  A    between atoms: _45  and  _47
REMARK   20  A    between atoms: _47  and  _48
REMARK   21  A    between atoms: _47  and  _50
REMARK   22  A    between atoms: _50  and  _51
REMARK   23  A    between atoms: _54  and  _56
REMARK   24  A    between atoms: _56  and  _57
REMARK   25  A    between atoms: _59  and  _61
REMARK   26  A    between atoms: _61  and  _62
REMARK   27  A    between atoms: _65  and  _67
REMARK   28  A    between atoms: _67  and  _68
REMARK   29  A    between atoms: _67  and  _70
REMARK   30  A    between atoms: _70  and  _71
REMARK   31  A    between atoms: _74  and  _76
REMARK   32  A    between atoms: _76  and  _77
REMARK   33  A    between atoms: _76  and  _79
REMARK   34  A    between atoms: _79  and  _80
REMARK   35  A    between atoms: _85  and  _87
REMARK   36  A    between atoms: _87  and  _88
REMARK   37  A    between atoms: _87  and  _90
REMARK   38  A    between atoms: _90  and  _91
REMARK   39  A    between atoms: _94  and  _96
REMARK   40  A    between atoms: _96  and  _97
REMARK   41  A    between atoms: _96  and  _99
REMARK   42  A    between atoms: _102  and  _104
REMARK   43  A    between atoms: _104  and  _105
REMARK   44  A    between atoms: _104  and  _107
REMARK   45  A    between atoms: _107  and  _108
REMARK   46  A    between atoms: _108  and  _109
REMARK   47  A    between atoms: _109  and  _110
REMARK   48  A    between atoms: _110  and  _111
REMARK   49  A    between atoms: _115  and  _117
REMARK   50  A    between atoms: _117  and  _118
REMARK   51  A    between atoms: _117  and  _120
REMARK   52  A    between atoms: _120  and  _121
REMARK   53  A    between atoms: _121  and  _122
REMARK   54  A    between atoms: _124  and  _126
REMARK   55  A    between atoms: _126  and  _127
REMARK   56  A    between atoms: _126  and  _129
REMARK   57  A    between atoms: _129  and  _130
REMARK   58  A    between atoms: _133  and  _135
REMARK   59  A    between atoms: _135  and  _136
REMARK   60  A    between atoms: _138  and  _140
REMARK   61  A    between atoms: _140  and  _141
REMARK   62  A    between atoms: _145  and  _146
REMARK   63  A    between atoms: _145  and  _148
REMARK   64  A    between atoms: _148  and  _149
REMARK   65  A    between atoms: _152  and  _154
REMARK   66  A    between atoms: _154  and  _155
REMARK   67  A    between atoms: _157  and  _159
REMARK   68  A    between atoms: _159  and  _160
REMARK   69  A    between atoms: _162  and  _164
REMARK   70  A    between atoms: _164  and  _165
REMARK   71  A    between atoms: _164  and  _167
REMARK   72  A    between atoms: _167  and  _168
REMARK   73  A    between atoms: _171  and  _173
REMARK   74  A    between atoms: _173  and  _174
REMARK   75  A    between atoms: _173  and  _176
REMARK   76  A    between atoms: _179  and  _181
REMARK   77  A    between atoms: _181  and  _182
REMARK   78  A    between atoms: _181  and  _184
REMARK   79  A    between atoms: _184  and  _185
REMARK   80  A    between atoms: _189  and  _190
REMARK   81  A    between atoms: _195  and  _197
REMARK   82  A    between atoms: _197  and  _198
REMARK   83  A    between atoms: _197  and  _200
REMARK   84  A    between atoms: _200  and  _201
REMARK   85  A    between atoms: _205  and  _206
REMARK   86  A    between atoms: _211  and  _213
REMARK   87  A    between atoms: _213  and  _214
REMARK   88  A    between atoms: _213  and  _216
REMARK   89  A    between atoms: _219  and  _221
REMARK   90  A    between atoms: _221  and  _222
REMARK   91  A    between atoms: _221  and  _224
REMARK   92  A    between atoms: _224  and  _225
REMARK   93  A    between atoms: _230  and  _232
REMARK   94  A    between atoms: _232  and  _233
REMARK   95  A    between atoms: _232  and  _235
REMARK   96  A    between atoms: _235  and  _236
REMARK   97  A    between atoms: _239  and  _241
REMARK   98  A    between atoms: _241  and  _242
REMARK   99  A    between atoms: _244  and  _246
REMARK  100  A    between atoms: _246  and  _247
REMARK  101  A    between atoms: _246  and  _249
REMARK  102  A    between atoms: _249  and  _250
REMARK  103  A    between atoms: _250  and  _251
REMARK  104  A    between atoms: _251  and  _252
REMARK  105  A    between atoms: _261  and  _263
REMARK  106  A    between atoms: _263  and  _264
REMARK  107  A    between atoms: _263  and  _266
REMARK  108  A    between atoms: _266  and  _267
REMARK  109  A    between atoms: _272  and  _274
REMARK  110  A    between atoms: _274  and  _275
REMARK  111  A    between atoms: _274  and  _277
REMARK  112  A    between atoms: _277  and  _278
REMARK  113  A    between atoms: _278  and  _279
REMARK  114  A    between atoms: _279  and  _280
REMARK  115  A    between atoms: _289  and  _291
REMARK  116  A    between atoms: _291  and  _292
REMARK  117  A    between atoms: _291  and  _294
REMARK  118  A    between atoms: _294  and  _295
REMARK  119  A    between atoms: _298  and  _300
REMARK  120  A    between atoms: _300  and  _301
REMARK  121  A    between atoms: _300  and  _303
REMARK  122  A    between atoms: _303  and  _304
REMARK  123  A    between atoms: _307  and  _309
REMARK  124  A    between atoms: _309  and  _310
REMARK  125  A    between atoms: _309  and  _312
REMARK  126  A    between atoms: _312  and  _313
REMARK  127  A    between atoms: _316  and  _318
REMARK  128  A    between atoms: _318  and  _319
REMARK  129  A    between atoms: _318  and  _321
REMARK  130  A    between atoms: _321  and  _322
REMARK  131  A    between atoms: _325  and  _327
REMARK  132  A    between atoms: _327  and  _328
REMARK  133  A    between atoms: _330  and  _332
REMARK  134  A    between atoms: _332  and  _333
REMARK  135  A    between atoms: _336  and  _338
REMARK  136  A    between atoms: _338  and  _339
REMARK  137  A    between atoms: _338  and  _341
REMARK  138  A    between atoms: _341  and  _342
REMARK  139  A    between atoms: _345  and  _347
REMARK  140  A    between atoms: _347  and  _348
REMARK  141  A    between atoms: _347  and  _350
REMARK  142  A    between atoms: _350  and  _351
REMARK  143  A    between atoms: _356  and  _358
REMARK  144  A    between atoms: _358  and  _359
REMARK  145  A    between atoms: _358  and  _361
REMARK  146  A    between atoms: _361  and  _362
REMARK  147  A    between atoms: _365  and  _367
REMARK  148  A    between atoms: _367  and  _368
REMARK  149  A    between atoms: _367  and  _370
REMARK  150  A    between atoms: _373  and  _375
REMARK  151  A    between atoms: _375  and  _376
REMARK  152  A    between atoms: _375  and  _378
REMARK  153  A    between atoms: _378  and  _379
REMARK  154  A    between atoms: _382  and  _384
REMARK  155  A    between atoms: _384  and  _385
REMARK  156  A    between atoms: _384  and  _387
REMARK  157  A    between atoms: _387  and  _388
REMARK  158  A    between atoms: _388  and  _389
REMARK  159  A    between atoms: _389  and  _390
REMARK  160  A    between atoms: _390  and  _391
REMARK  161  A    between atoms: _395  and  _397
REMARK  162  A    between atoms: _397  and  _398
REMARK  163  A    between atoms: _397  and  _400
REMARK  164  A    between atoms: _400  and  _401
REMARK  165  A    between atoms: _401  and  _402
REMARK  166  A    between atoms: _404  and  _406
REMARK  167  A    between atoms: _406  and  _407
REMARK  168  A    between atoms: _406  and  _409
REMARK  169  A    between atoms: _409  and  _410
REMARK  170  A    between atoms: _413  and  _415
REMARK  171  A    between atoms: _415  and  _416
REMARK  172  A    between atoms: _418  and  _420
REMARK  173  A    between atoms: _420  and  _421
REMARK  174  A    between atoms: _423  and  _425
REMARK  175  A    between atoms: _425  and  _426
REMARK  176  A    between atoms: _425  and  _428
REMARK  177  A    between atoms: _428  and  _429
REMARK  178  A    between atoms: _432  and  _434
REMARK  179  A    between atoms: _434  and  _435
REMARK  180  A    between atoms: _437  and  _439
REMARK  181  A    between atoms: _439  and  _440
REMARK  182  A    between atoms: _442  and  _444
REMARK  183  A    between atoms: _444  and  _445
REMARK  184  A    between atoms: _444  and  _447
REMARK  185  A    between atoms: _447  and  _448
REMARK  186  A    between atoms: _454  and  _456
REMARK  187  A    between atoms: _456  and  _457
REMARK  188  A    between atoms: _456  and  _459
REMARK  189  A    between atoms: _459  and  _460
REMARK  190  A    between atoms: _463  and  _465
REMARK  191  A    between atoms: _465  and  _466
REMARK  192  A    between atoms: _465  and  _468
REMARK  193  A    between atoms: _471  and  _473
REMARK  194  A    between atoms: _473  and  _474
REMARK  195  A    between atoms: _473  and  _476
REMARK  196  A    between atoms: _476  and  _477
REMARK  197  A    between atoms: _480  and  _482
REMARK  198  A    between atoms: _482  and  _483
REMARK  199  A    between atoms: _482  and  _485
REMARK  200  A    between atoms: _485  and  _486
REMARK  201  A    between atoms: _490  and  _491
REMARK  202  A    between atoms: _496  and  _498
REMARK  203  A    between atoms: _498  and  _499
REMARK  204  A    between atoms: _498  and  _501
REMARK  205  A    between atoms: _504  and  _506
REMARK  206  A    between atoms: _506  and  _507
REMARK  207  A    between atoms: _506  and  _509
REMARK  208  A    between atoms: _509  and  _510
REMARK  209  A    between atoms: _515  and  _517
REMARK  210  A    between atoms: _517  and  _518
REMARK  211  A    between atoms: _517  and  _520
REMARK  212  A    between atoms: _520  and  _521
REMARK  213  A    between atoms: _524  and  _526
REMARK  214  A    between atoms: _526  and  _527
REMARK  215  A    between atoms: _526  and  _529
REMARK  216  A    between atoms: _529  and  _530
REMARK  217  A    between atoms: _533  and  _535
REMARK  218  A    between atoms: _535  and  _536
REMARK  219  A    between atoms: _538  and  _540
REMARK  220  A    between atoms: _540  and  _541
REMARK  221  A    between atoms: _540  and  _543
REMARK  222  A    between atoms: _543  and  _544
REMARK  223  A    between atoms: _544  and  _545
REMARK  224  A    between atoms: _545  and  _546
REMARK                            x       y       z     vdW  Elec       q    Type
REMARK                         _______ _______ _______ _____ _____    ______ ____
ROOT
ATOM      1  CA  VAL A   1      -9.665   6.839  14.854  0.00  0.00    +0.133 C 
ENDROOT
BRANCH   1   2
ATOM      2  CB  VAL A   1      -9.891   8.298  15.292  0.00  0.00    +0.023 C 
ATOM      3  CG2 VAL A   1      -9.884   8.417  16.819  0.00  0.00    +0.002 C 
ATOM      4  CG1 VAL A   1      -8.848   9.226  14.654  0.00  0.00    +0.002 C 
ENDBRANCH   1   2
BRANCH   1   5
ATOM      5  N   VAL A   1      -8.350   6.348  15.284  0.00  0.00    -0.239 NA
ATOM      6  H   VAL A   1      -7.500   6.793  14.882  0.00  0.00    +0.142 HD
ENDBRANCH   1   5
BRANCH   1   7
ATOM      7  C   VAL A   1      -9.856   6.763  13.328  0.00  0.00    +0.224 C 
ATOM      8  O   VAL A   1      -8.879   6.653  12.570  0.00  0.00    -0.287 OA
ENDBRANCH   1   7
TORSDOF 3
REMARK  Name = ../refined-set-2016/2q64/2q64_pocket.pdb
REMARK  224 active torsions:
REMARK  status: ('A' for Active; 'I' for Inactive)
REMARK    1  A    between atoms: _1  and  _3
REMARK    2  A    between atoms: _3  and  _4
REMARK    3  A    between atoms: _3  and  _6
REMARK    4  A    between atoms: _6  and  _7
REMARK    5  A    between atoms: _7  and  _8
REMARK    6  A    between atoms: _8  and  _9
REMARK    7  A    between atoms: _18  and  _20
REMARK    8  A    between atoms: _20  and  _21
REMARK    9  A    between atoms: _20  and  _23
REMARK   10  A    between atoms: _23  and  _24
REMARK   11  A    between atoms: _27  and  _29
REMARK   12  A    between atoms: _29  and  _30
REMARK   13  A    between atoms: _29  and  _32
REMARK   14  A    between atoms: _32  and  _33
REMARK   15  A    between atoms: _36  and  _38
REMARK   16  A    between atoms: _38  and  _39
REMARK   17  A    between atoms: _38  and  _41
REMARK   18  A    between atoms: _41  and  _42
REMARK   19  A    between atoms: _45  and  _47
REMARK   20  A    between atoms: _47  and  _48
REMARK   21  A    between atoms: _47  and  _50
REMARK   22  A    between atoms: _50  and  _51
REMARK   23  A    between atoms: _54  and  _56
REMARK   24  A    between atoms: _56  and  _57
REMARK   25  A    between atoms: _59  and  _61
REMARK   26  A    between atoms: _61  and  _62
REMARK   27  A    between atoms: _65  and  _67
REMARK   28  A    between atoms: _67  and  _68
REMARK   29  A    between atoms: _67  and  _70
REMARK   30  A    between atoms: _70  and  _71
REMARK   31  A    between atoms: _74  and  _76
REMARK   32  A    between atoms: _76  and  _77
REMARK   33  A    between atoms: _76  and  _79
REMARK   34  A    between atoms: _79  and  _80
REMARK   35  A    between atoms: _85  and  _87
REMARK   36  A    between atoms: _87  and  _88
REMARK   37  A    between atoms: _87  and  _90
REMARK   38  A    between atoms: _90  and  _91
REMARK   39  A    between atoms: _94  and  _96
REMARK   40  A    between atoms: _96  and  _97
REMARK   41  A    between atoms: _96  and  _99
REMARK   42  A    between atoms: _102  and  _104
REMARK   43  A    between atoms: _104  and  _105
REMARK   44  A    between atoms: _104  and  _107
REMARK   45  A    between atoms: _107  and  _108
REMARK   46  A    between atoms: _108  and  _109
REMARK   47  A    between atoms: _109  and  _110
REMARK   48  A    between atoms: _110  and  _111
REMARK   49  A    between atoms: _115  and  _117
REMARK   50  A    between atoms: _117  and  _118
REMARK   51  A    between atoms: _117  and  _120
REMARK   52  A    between atoms: _120  and  _121
REMARK   53  A    between atoms: _121  and  _122
REMARK   54  A    between atoms: _124  and  _126
REMARK   55  A    between atoms: _126  and  _127
REMARK   56  A    between atoms: _126  and  _129
REMARK   57  A    between atoms: _129  and  _130
REMARK   58  A    between atoms: _133  and  _135
REMARK   59  A    between atoms: _135  and  _136
REMARK   60  A    between atoms: _138  and  _140
REMARK   61  A    between atoms: _140  and  _141
REMARK   62  A    between atoms: _145  and  _146
REMARK   63  A    between atoms: _145  and  _148
REMARK   64  A    between atoms: _148  and  _149
REMARK   65  A    between atoms: _152  and  _154
REMARK   66  A    between atoms: _154  and  _155
REMARK   67  A    between atoms: _157  and  _159
REMARK   68  A    between atoms: _159  and  _160
REMARK   69  A    between atoms: _162  and  _164
REMARK   70  A    between atoms: _164  and  _165
REMARK   71  A    between atoms: _164  and  _167
REMARK   72  A    between atoms: _167  and  _168
REMARK   73  A    between atoms: _171  and  _173
REMARK   74  A    between atoms: _173  and  _174
REMARK   75  A    between atoms: _173  and  _176
REMARK   76  A    between atoms: _179  and  _181
REMARK   77  A    between atoms: _181  and  _182
REMARK   78  A    between atoms: _181  and  _184
REMARK   79  A    between atoms: _184  and  _185
REMARK   80  A    between atoms: _189  and  _190
REMARK   81  A    between atoms: _195  and  _197
REMARK   82  A    between atoms: _197  and  _198
REMARK   83  A    between atoms: _197  and  _200
REMARK   84  A    between atoms: _200  and  _201
REMARK   85  A    between atoms: _205  and  _206
REMARK   86  A    between atoms: _211  and  _213
REMARK   87  A    between atoms: _213  and  _214
REMARK   88  A    between atoms: _213  and  _216
REMARK   89  A    between atoms: _219  and  _221
REMARK   90  A    between atoms: _221  and  _222
REMARK   91  A    between atoms: _221  and  _224
REMARK   92  A    between atoms: _224  and  _225
REMARK   93  A    between atoms: _230  and  _232
REMARK   94  A    between atoms: _232  and  _233
REMARK   95  A    between atoms: _232  and  _235
REMARK   96  A    between atoms: _235  and  _236
REMARK   97  A    between atoms: _239  and  _241
REMARK   98  A    between atoms: _241  and  _242
REMARK   99  A    between atoms: _244  and  _246
REMARK  100  A    between atoms: _246  and  _247
REMARK  101  A    between atoms: _246  and  _249
REMARK  102  A    between atoms: _249  and  _250
REMARK  103  A    between atoms: _250  and  _251
REMARK  104  A    between atoms: _251  and  _252
REMARK  105  A    between atoms: _261  and  _263
REMARK  106  A    between atoms: _263  and  _264
REMARK  107  A    between atoms: _263  and  _266
REMARK  108  A    between atoms: _266  and  _267
REMARK  109  A    between atoms: _272  and  _274
REMARK  110  A    between atoms: _274  and  _275
REMARK  111  A    between atoms: _274  and  _277
REMARK  112  A    between atoms: _277  and  _278
REMARK  113  A    between atoms: _278  and  _279
REMARK  114  A    between atoms: _279  and  _280
REMARK  115  A    between atoms: _289  and  _291
REMARK  116  A    between atoms: _291  and  _292
REMARK  117  A    between atoms: _291  and  _294
REMARK  118  A    between atoms: _294  and  _295
REMARK  119  A    between atoms: _298  and  _300
REMARK  120  A    between atoms: _300  and  _301
REMARK  121  A    between atoms: _300  and  _303
REMARK  122  A    between atoms: _303  and  _304
REMARK  123  A    between atoms: _307  and  _309
REMARK  124  A    between atoms: _309  and  _310
REMARK  125  A    between atoms: _309  and  _312
REMARK  126  A    between atoms: _312  and  _313
REMARK  127  A    between atoms: _316  and  _318
REMARK  128  A    between atoms: _318  and  _319
REMARK  129  A    between atoms: _318  and  _321
REMARK  130  A    between atoms: _321  and  _322
REMARK  131  A    between atoms: _325  and  _327
REMARK  132  A    between atoms: _327  and  _328
REMARK  133  A    between atoms: _330  and  _332
REMARK  134  A    between atoms: _332  and  _333
REMARK  135  A    between atoms: _336  and  _338
REMARK  136  A    between atoms: _338  and  _339
REMARK  137  A    between atoms: _338  and  _341
REMARK  138  A    between atoms: _341  and  _342
REMARK  139  A    between atoms: _345  and  _347
REMARK  140  A    between atoms: _347  and  _348
REMARK  141  A    between atoms: _347  and  _350
REMARK  142  A    between atoms: _350  and  _351
REMARK  143  A    between atoms: _356  and  _358
REMARK  144  A    between atoms: _358  and  _359
REMARK  145  A    between atoms: _358  and  _361
REMARK  146  A    between atoms: _361  and  _362
REMARK  147  A    between atoms: _365  and  _367
REMARK  148  A    between atoms: _367  and  _368
REMARK  149  A    between atoms: _367  and  _370
REMARK  150  A    between atoms: _373  and  _375
REMARK  151  A    between atoms: _375  and  _376
REMARK  152  A    between atoms: _375  and  _378
REMARK  153  A    between atoms: _378  and  _379
REMARK  154  A    between atoms: _382  and  _384
REMARK  155  A    between atoms: _384  and  _385
REMARK  156  A    between atoms: _384  and  _387
REMARK  157  A    between atoms: _387  and  _388
REMARK  158  A    between atoms: _388  and  _389
REMARK  159  A    between atoms: _389  and  _390
REMARK  160  A    between atoms: _390  and  _391
REMARK  161  A    between atoms: _395  and  _397
REMARK  162  A    between atoms: _397  and  _398
REMARK  163  A    between atoms: _397  and  _400
REMARK  164  A    between atoms: _400  and  _401
REMARK  165  A    between atoms: _401  and  _402
REMARK  166  A    between atoms: _404  and  _406
REMARK  167  A    between atoms: _406  and  _407
REMARK  168  A    between atoms: _406  and  _409
REMARK  169  A    between atoms: _409  and  _410
REMARK  170  A    between atoms: _413  and  _415
REMARK  171  A    between atoms: _415  and  _416
REMARK  172  A    between atoms: _418  and  _420
REMARK  173  A    between atoms: _420  and  _421
REMARK  174  A    between atoms: _423  and  _425
REMARK  175  A    between atoms: _425  and  _426
REMARK  176  A    between atoms: _425  and  _428
REMARK  177  A    between atoms: _428  and  _429
REMARK  178  A    between atoms: _432  and  _434
REMARK  179  A    between atoms: _434  and  _435
REMARK  180  A    between atoms: _437  and  _439
REMARK  181  A    between atoms: _439  and  _440
REMARK  182  A    between atoms: _442  and  _444
REMARK  183  A    between atoms: _444  and  _445
REMARK  184  A    between atoms: _444  and  _447
REMARK  185  A    between atoms: _447  and  _448
REMARK  186  A    between atoms: _454  and  _456
REMARK  187  A    between atoms: _456  and  _457
REMARK  188  A    between atoms: _456  and  _459
REMARK  189  A    between atoms: _459  and  _460
REMARK  190  A    between atoms: _463  and  _465
REMARK  191  A    between atoms: _465  and  _466
REMARK  192  A    between atoms: _465  and  _468
REMARK  193  A    between atoms: _471  and  _473
REMARK  194  A    between atoms: _473  and  _474
REMARK  195  A    between atoms: _473  and  _476
REMARK  196  A    between atoms: _476  and  _477
REMARK  197  A    between atoms: _480  and  _482
REMARK  198  A    between atoms: _482  and  _483
REMARK  199  A    between atoms: _482  and  _485
REMARK  200  A    between atoms: _485  and  _486
REMARK  201  A    between atoms: _490  and  _491
REMARK  202  A    between atoms: _496  and  _498
REMARK  203  A    between atoms: _498  and  _499
REMARK  204  A    between atoms: _498  and  _501
REMARK  205  A    between atoms: _504  and  _506
REMARK  206  A    between atoms: _506  and  _507
REMARK  207  A    between atoms: _506  and  _509
REMARK  208  A    between atoms: _509  and  _510
REMARK  209  A    between atoms: _515  and  _517
REMARK  210  A    between atoms: _517  and  _518
REMARK  211  A    between atoms: _517  and  _520
REMARK  212  A    between atoms: _520  and  _521
REMARK  213  A    between atoms: _524  and  _526
REMARK  214  A    between atoms: _526  and  _527
REMARK  215  A    between atoms: _526  and  _529
REMARK  216  A    between atoms: _529  and  _530
REMARK  217  A    between atoms: _533  and  _535
REMARK  218  A    between atoms: _535  and  _536
REMARK  219  A    between atoms: _538  and  _540
REMARK  220  A    between atoms: _540  and  _541
REMARK  221  A    between atoms: _540  and  _543
REMARK  222  A    between atoms: _543  and  _544
REMARK  223  A    between atoms: _544  and  _545
REMARK  224  A    between atoms: _545  and  _546
REMARK                            x       y       z     vdW  Elec       q    Type
REMARK                         _______ _______ _______ _____ _____    ______ ____
ROOT
ATOM      1  CA  LEU A   1     -13.118  11.582  14.052  0.00  0.00    +0.133 C 
ENDROOT
BRANCH   1   2
ATOM      2  N   LEU A   1     -13.907  12.822  13.836  0.00  0.00    -0.239 NA
ATOM      3  H   LEU A   1     -14.067  13.460  14.641  0.00  0.00    +0.142 HD
ENDBRANCH   1   2
BRANCH   1   4
ATOM      4  C   LEU A   1     -13.980  10.555  14.794  0.00  0.00    +0.224 C 
ATOM      5  O   LEU A   1     -14.683  10.935  15.730  0.00  0.00    -0.287 OA
ENDBRANCH   1   4
BRANCH   1   6
ATOM      6  CB  LEU A   1     -11.870  11.888  14.881  0.00  0.00    +0.025 C 
BRANCH   6   7
ATOM      7  CG  LEU A   1     -10.515  12.293  14.292  0.00  0.00    +0.002 C 
ATOM      8  CD2 LEU A   1      -9.728  13.100  15.327  0.00  0.00    +0.000 C 
ATOM      9  CD1 LEU A   1     -10.558  13.008  12.939  0.00  0.00    +0.000 C 
ENDBRANCH   6   7
ENDBRANCH   1   6
TORSDOF 4
REMARK  Name = ../refined-set-2016/2q64/2q64_pocket.pdb
REMARK  224 active torsions:
REMARK  status: ('A' for Active; 'I' for Inactive)
REMARK    1  A    between atoms: _1  and  _3
REMARK    2  A    between atoms: _3  and  _4
REMARK    3  A    between atoms: _3  and  _6
REMARK    4  A    between atoms: _6  and  _7
REMARK    5  A    between atoms: _7  and  _8
REMARK    6  A    between atoms: _8  and  _9
REMARK    7  A    between atoms: _18  and  _20
REMARK    8  A    between atoms: _20  and  _21
REMARK    9  A    between atoms: _20  and  _23
REMARK   10  A    between atoms: _23  and  _24
REMARK   11  A    between atoms: _27  and  _29
REMARK   12  A    between atoms: _29  and  _30
REMARK   13  A    between atoms: _29  and  _32
REMARK   14  A    between atoms: _32  and  _33
REMARK   15  A    between atoms: _36  and  _38
REMARK   16  A    between atoms: _38  and  _39
REMARK   17  A    between atoms: _38  and  _41
REMARK   18  A    between atoms: _41  and  _42
REMARK   19  A    between atoms: _45  and  _47
REMARK   20  A    between atoms: _47  and  _48
REMARK   21  A    between atoms: _47  and  _50
REMARK   22  A    between atoms: _50  and  _51
REMARK   23  A    between atoms: _54  and  _56
REMARK   24  A    between atoms: _56  and  _57
REMARK   25  A    between atoms: _59  and  _61
REMARK   26  A    between atoms: _61  and  _62
REMARK   27  A    between atoms: _65  and  _67
REMARK   28  A    between atoms: _67  and  _68
REMARK   29  A    between atoms: _67  and  _70
REMARK   30  A    between atoms: _70  and  _71
REMARK   31  A    between atoms: _74  and  _76
REMARK   32  A    between atoms: _76  and  _77
REMARK   33  A    between atoms: _76  and  _79
REMARK   34  A    between atoms: _79  and  _80
REMARK   35  A    between atoms: _85  and  _87
REMARK   36  A    between atoms: _87  and  _88
REMARK   37  A    between atoms: _87  and  _90
REMARK   38  A    between atoms: _90  and  _91
REMARK   39  A    between atoms: _94  and  _96
REMARK   40  A    between atoms: _96  and  _97
REMARK   41  A    between atoms: _96  and  _99
REMARK   42  A    between atoms: _102  and  _104
REMARK   43  A    between atoms: _104  and  _105
REMARK   44  A    between atoms: _104  and  _107
REMARK   45  A    between atoms: _107  and  _108
REMARK   46  A    between atoms: _108  and  _109
REMARK   47  A    between atoms: _109  and  _110
REMARK   48  A    between atoms: _110  and  _111
REMARK   49  A    between atoms: _115  and  _117
REMARK   50  A    between atoms: _117  and  _118
REMARK   51  A    between atoms: _117  and  _120
REMARK   52  A    between atoms: _120  and  _121
REMARK   53  A    between atoms: _121  and  _122
REMARK   54  A    between atoms: _124  and  _126
REMARK   55  A    between atoms: _126  and  _127
REMARK   56  A    between atoms: _126  and  _129
REMARK   57  A    between atoms: _129  and  _130
REMARK   58  A    between atoms: _133  and  _135
REMARK   59  A    between atoms: _135  and  _136
REMARK   60  A    between atoms: _138  and  _140
REMARK   61  A    between atoms: _140  and  _141
REMARK   62  A    between atoms: _145  and  _146
REMARK   63  A    between atoms: _145  and  _148
REMARK   64  A    between atoms: _148  and  _149
REMARK   65  A    between atoms: _152  and  _154
REMARK   66  A    between atoms: _154  and  _155
REMARK   67  A    between atoms: _157  and  _159
REMARK   68  A    between atoms: _159  and  _160
REMARK   69  A    between atoms: _162  and  _164
REMARK   70  A    between atoms: _164  and  _165
REMARK   71  A    between atoms: _164  and  _167
REMARK   72  A    between atoms: _167  and  _168
REMARK   73  A    between atoms: _171  and  _173
REMARK   74  A    between atoms: _173  and  _174
REMARK   75  A    between atoms: _173  and  _176
REMARK   76  A    between atoms: _179  and  _181
REMARK   77  A    between atoms: _181  and  _182
REMARK   78  A    between atoms: _181  and  _184
REMARK   79  A    between atoms: _184  and  _185
REMARK   80  A    between atoms: _189  and  _190
REMARK   81  A    between atoms: _195  and  _197
REMARK   82  A    between atoms: _197  and  _198
REMARK   83  A    between atoms: _197  and  _200
REMARK   84  A    between atoms: _200  and  _201
REMARK   85  A    between atoms: _205  and  _206
REMARK   86  A    between atoms: _211  and  _213
REMARK   87  A    between atoms: _213  and  _214
REMARK   88  A    between atoms: _213  and  _216
REMARK   89  A    between atoms: _219  and  _221
REMARK   90  A    between atoms: _221  and  _222
REMARK   91  A    between atoms: _221  and  _224
REMARK   92  A    between atoms: _224  and  _225
REMARK   93  A    between atoms: _230  and  _232
REMARK   94  A    between atoms: _232  and  _233
REMARK   95  A    between atoms: _232  and  _235
REMARK   96  A    between atoms: _235  and  _236
REMARK   97  A    between atoms: _239  and  _241
REMARK   98  A    between atoms: _241  and  _242
REMARK   99  A    between atoms: _244  and  _246
REMARK  100  A    between atoms: _246  and  _247
REMARK  101  A    between atoms: _246  and  _249
REMARK  102  A    between atoms: _249  and  _250
REMARK  103  A    between atoms: _250  and  _251
REMARK  104  A    between atoms: _251  and  _252
REMARK  105  A    between atoms: _261  and  _263
REMARK  106  A    between atoms: _263  and  _264
REMARK  107  A    between atoms: _263  and  _266
REMARK  108  A    between atoms: _266  and  _267
REMARK  109  A    between atoms: _272  and  _274
REMARK  110  A    between atoms: _274  and  _275
REMARK  111  A    between atoms: _274  and  _277
REMARK  112  A    between atoms: _277  and  _278
REMARK  113  A    between atoms: _278  and  _279
REMARK  114  A    between atoms: _279  and  _280
REMARK  115  A    between atoms: _289  and  _291
REMARK  116  A    between atoms: _291  and  _292
REMARK  117  A    between atoms: _291  and  _294
REMARK  118  A    between atoms: _294  and  _295
REMARK  119  A    between atoms: _298  and  _300
REMARK  120  A    between atoms: _300  and  _301
REMARK  121  A    between atoms: _300  and  _303
REMARK  122  A    between atoms: _303  and  _304
REMARK  123  A    between atoms: _307  and  _309
REMARK  124  A    between atoms: _309  and  _310
REMARK  125  A    between atoms: _309  and  _312
REMARK  126  A    between atoms: _312  and  _313
REMARK  127  A    between atoms: _316  and  _318
REMARK  128  A    between atoms: _318  and  _319
REMARK  129  A    between atoms: _318  and  _321
REMARK  130  A    between atoms: _321  and  _322
REMARK  131  A    between atoms: _325  and  _327
REMARK  132  A    between atoms: _327  and  _328
REMARK  133  A    between atoms: _330  and  _332
REMARK  134  A    between atoms: _332  and  _333
REMARK  135  A    between atoms: _336  and  _338
REMARK  136  A    between atoms: _338  and  _339
REMARK  137  A    between atoms: _338  and  _341
REMARK  138  A    between atoms: _341  and  _342
REMARK  139  A    between atoms: _345  and  _347
REMARK  140  A    between atoms: _347  and  _348
REMARK  141  A    between atoms: _347  and  _350
REMARK  142  A    between atoms: _350  and  _351
REMARK  143  A    between atoms: _356  and  _358
REMARK  144  A    between atoms: _358  and  _359
REMARK  145  A    between atoms: _358  and  _361
REMARK  146  A    between atoms: _361  and  _362
REMARK  147  A    between atoms: _365  and  _367
REMARK  148  A    between atoms: _367  and  _368
REMARK  149  A    between atoms: _367  and  _370
REMARK  150  A    between atoms: _373  and  _375
REMARK  151  A    between atoms: _375  and  _376
REMARK  152  A    between atoms: _375  and  _378
REMARK  153  A    between atoms: _378  and  _379
REMARK  154  A    between atoms: _382  and  _384
REMARK  155  A    between atoms: _384  and  _385
REMARK  156  A    between atoms: _384  and  _387
REMARK  157  A    between atoms: _387  and  _388
REMARK  158  A    between atoms: _388  and  _389
REMARK  159  A    between atoms: _389  and  _390
REMARK  160  A    between atoms: _390  and  _391
REMARK  161  A    between atoms: _395  and  _397
REMARK  162  A    between atoms: _397  and  _398
REMARK  163  A    between atoms: _397  and  _400
REMARK  164  A    between atoms: _400  and  _401
REMARK  165  A    between atoms: _401  and  _402
REMARK  166  A    between atoms: _404  and  _406
REMARK  167  A    between atoms: _406  and  _407
REMARK  168  A    between atoms: _406  and  _409
REMARK  169  A    between atoms: _409  and  _410
REMARK  170  A    between atoms: _413  and  _415
REMARK  171  A    between atoms: _415  and  _416
REMARK  172  A    between atoms: _418  and  _420
REMARK  173  A    between atoms: _420  and  _421
REMARK  174  A    between atoms: _423  and  _425
REMARK  175  A    between atoms: _425  and  _426
REMARK  176  A    between atoms: _425  and  _428
REMARK  177  A    between atoms: _428  and  _429
REMARK  178  A    between atoms: _432  and  _434
REMARK  179  A    between atoms: _434  and  _435
REMARK  180  A    between atoms: _437  and  _439
REMARK  181  A    between atoms: _439  and  _440
REMARK  182  A    between atoms: _442  and  _444
REMARK  183  A    between atoms: _444  and  _445
REMARK  184  A    between atoms: _444  and  _447
REMARK  185  A    between atoms: _447  and  _448
REMARK  186  A    between atoms: _454  and  _456
REMARK  187  A    between atoms: _456  and  _457
REMARK  188  A    between atoms: _456  and  _459
REMARK  189  A    between atoms: _459  and  _460
REMARK  190  A    between atoms: _463  and  _465
REMARK  191  A    between atoms: _465  and  _466
REMARK  192  A    between atoms: _465  and  _468
REMARK  193  A    between atoms: _471  and  _473
REMARK  194  A    between atoms: _473  and  _474
REMARK  195  A    between atoms: _473  and  _476
REMARK  196  A    between atoms: _476  and  _477
REMARK  197  A    between atoms: _480  and  _482
REMARK  198  A    between atoms: _482  and  _483
REMARK  199  A    between atoms: _482  and  _485
REMARK  200  A    between atoms: _485  and  _486
REMARK  201  A    between atoms: _490  and  _491
REMARK  202  A    between atoms: _496  and  _498
REMARK  203  A    between atoms: _498  and  _499
REMARK  204  A    between atoms: _498  and  _501
REMARK  205  A    between atoms: _504  and  _506
REMARK  206  A    between atoms: _506  and  _507
REMARK  207  A    between atoms: _506  and  _509
REMARK  208  A    between atoms: _509  and  _510
REMARK  209  A    between atoms: _515  and  _517
REMARK  210  A    between atoms: _517  and  _518
REMARK  211  A    between atoms: _517  and  _520
REMARK  212  A    between atoms: _520  and  _521
REMARK  213  A    between atoms: _524  and  _526
REMARK  214  A    between atoms: _526  and  _527
REMARK  215  A    between atoms: _526  and  _529
REMARK  216  A    between atoms: _529  and  _530
REMARK  217  A    between atoms: _533  and  _535
REMARK  218  A    between atoms: _535  and  _536
REMARK  219  A    between atoms: _538  and  _540
REMARK  220  A    between atoms: _540  and  _541
REMARK  221  A    between atoms: _540  and  _543
REMARK  222  A    between atoms: _543  and  _544
REMARK  223  A    between atoms: _544  and  _545
REMARK  224  A    between atoms: _545  and  _546
REMARK                            x       y       z     vdW  Elec       q    Type
REMARK                         _______ _______ _______ _____ _____    ______ ____
ROOT
ATOM      1  CA  VAL A   4     -17.478  10.340  25.536  0.00  0.00    +0.149 C 
ENDROOT
BRANCH   1   2
ATOM      2  C   VAL A   4     -17.364  11.077  24.180  0.00  0.00    +0.241 C 
ATOM      3  O   VAL A   4     -16.247  11.266  23.663  0.00  0.00    -0.273 OA
ATOM      4  N   ASN A   5     -18.506  11.456  23.590  0.00  0.00    -0.297 N 
ATOM      5  H   ASN A   5     -19.410  11.167  24.015  0.00  0.00    +0.150 HD
BRANCH   4   6
ATOM      6  CA  ASN A   5     -18.525  12.263  22.368  0.00  0.00    +0.158 C 
BRANCH   6   7
ATOM      7  C   ASN A   5     -18.002  13.701  22.649  0.00  0.00    +0.241 C 
ATOM      8  O   ASN A   5     -18.496  14.401  23.540  0.00  0.00    -0.273 OA
ATOM      9  N   ILE A   6     -16.983  14.117  21.906  0.00  0.00    -0.298 N 
ATOM     10  H   ILE A   6     -16.638  13.508  21.136  0.00  0.00    +0.150 HD
BRANCH   9  11
ATOM     11  CA  ILE A   6     -16.337  15.393  22.135  0.00  0.00    +0.137 C 
BRANCH  11  12
ATOM     12  CB  ILE A   6     -14.836  15.199  22.434  0.00  0.00    +0.026 C 
ATOM     13  CG2 ILE A   6     -14.102  16.533  22.412  0.00  0.00    +0.002 C 
BRANCH  12  14
ATOM     14  CG1 ILE A   6     -14.653  14.527  23.794  0.00  0.00    +0.002 C 
ATOM     15  CD1 ILE A   6     -13.637  13.441  23.740  0.00  0.00    +0.000 C 
ENDBRANCH  12  14
ENDBRANCH  11  12
BRANCH  11  16
ATOM     16  C   ILE A   6     -16.482  16.289  20.919  0.00  0.00    +0.227 C 
ATOM     17  O   ILE A   6     -16.120  15.908  19.795  0.00  0.00    -0.286 OA
ENDBRANCH  11  16
ENDBRANCH   9  11
ENDBRANCH   6   7
BRANCH   6  18
ATOM     18  CB  ASN A   5     -19.935  12.311  21.747  0.00  0.00    +0.114 C 
BRANCH  18  19
ATOM     19  CG  ASN A   5     -20.463  10.926  21.304  0.00  0.00    +0.222 C 
ATOM     20  ND2 ASN A   5     -21.725  10.646  21.623  0.00  0.00    -0.329 N 
ATOM     21 HD21 ASN A   5     -22.286  11.328  22.173  0.00  0.00    +0.145 HD
ATOM     22 HD22 ASN A   5     -22.150   9.745  21.323  0.00  0.00    +0.145 HD
ATOM     23  OD1 ASN A   5     -19.760  10.146  20.653  0.00  0.00    -0.275 OA
ENDBRANCH  18  19
ENDBRANCH   6  18
ENDBRANCH   4   6
ENDBRANCH   1   2
BRANCH   1  26
ATOM     24  C   PRO A   3     -16.789   8.040  26.132  0.00  0.00    +0.241 C 
ATOM     25  O   PRO A   3     -17.873   7.744  26.646  0.00  0.00    -0.273 OA
ATOM     26  N   VAL A   4     -16.547   9.213  25.535  0.00  0.00    -0.297 N 
ATOM     27  H   VAL A   4     -15.640   9.330  25.040  0.00  0.00    +0.150 HD
BRANCH  24  30
ATOM     28  C   THR A   2     -14.710   7.115  23.884  0.00  0.00    +0.246 C 
ATOM     29  N   PRO A   3     -14.527   7.277  25.216  0.00  0.00    -0.272 N 
ATOM     30  CA  PRO A   3     -15.636   7.019  26.161  0.00  0.00    +0.152 C 
ATOM     31  CB  PRO A   3     -14.947   7.022  27.535  0.00  0.00    +0.031 C 
ATOM     32  CG  PRO A   3     -13.685   7.777  27.348  0.00  0.00    +0.024 C 
ATOM     33  CD  PRO A   3     -13.277   7.658  25.907  0.00  0.00    +0.094 C 
ATOM     34  O   THR A   2     -15.764   6.683  23.405  0.00  0.00    -0.273 OA
BRANCH  28  35
ATOM     35  CA  THR A   2     -13.530   7.438  22.953  0.00  0.00    +0.176 C 
BRANCH  35  38
ATOM     36  C   PRO A   1     -12.663   5.304  22.048  0.00  0.00    +0.239 C 
ATOM     37  O   PRO A   1     -11.798   5.171  22.915  0.00  0.00    -0.274 OA
ATOM     38  N   THR A   2     -13.440   6.381  21.938  0.00  0.00    -0.295 N 
ATOM     39  H   THR A   2     -14.019   6.479  21.080  0.00  0.00    +0.150 HD
BRANCH  36  41
ATOM     40  N   PRO A   1     -12.593   4.643  19.627  0.00  0.00    -0.210 NA
ATOM     41  CA  PRO A   1     -12.895   4.211  20.994  0.00  0.00    +0.149 C 
ATOM     42  CB  PRO A   1     -11.968   3.001  21.197  0.00  0.00    +0.028 C 
ATOM     43  CG  PRO A   1     -10.812   3.256  20.307  0.00  0.00    +0.021 C 
ATOM     44  CD  PRO A   1     -11.302   4.104  19.152  0.00  0.00    +0.089 C 
ENDBRANCH  36  41
ENDBRANCH  35  38
BRANCH  35  45
ATOM     45  CB  THR A   2     -13.688   8.862  22.313  0.00  0.00    +0.137 C 
ATOM     46  CG2 THR A   2     -14.891   8.940  21.374  0.00  0.00    +0.034 C 
BRANCH  45  47
ATOM     47  OG1 THR A   2     -13.826   9.847  23.346  0.00  0.00    -0.382 OA
ATOM     48  HG1 THR A   2     -14.627   9.642  23.891  0.00  0.00    +0.210 HD
ENDBRANCH  45  47
ENDBRANCH  35  45
ENDBRANCH  28  35
ENDBRANCH  24  30
ENDBRANCH   1  26
BRANCH   1  49
ATOM     49  CB  VAL A   4     -17.177  11.306  26.743  0.00  0.00    +0.027 C 
ATOM     50  CG2 VAL A   4     -17.257  10.548  28.093  0.00  0.00    +0.002 C 
ATOM     51  CG1 VAL A   4     -18.111  12.497  26.763  0.00  0.00    +0.002 C 
ENDBRANCH   1  49
TORSDOF 17
REMARK  Name = ../refined-set-2016/2q64/2q64_pocket.pdb
REMARK  224 active torsions:
REMARK  status: ('A' for Active; 'I' for Inactive)
REMARK    1  A    between atoms: _1  and  _3
REMARK    2  A    between atoms: _3  and  _4
REMARK    3  A    between atoms: _3  and  _6
REMARK    4  A    between atoms: _6  and  _7
REMARK    5  A    between atoms: _7  and  _8
REMARK    6  A    between atoms: _8  and  _9
REMARK    7  A    between atoms: _18  and  _20
REMARK    8  A    between atoms: _20  and  _21
REMARK    9  A    between atoms: _20  and  _23
REMARK   10  A    between atoms: _23  and  _24
REMARK   11  A    between atoms: _27  and  _29
REMARK   12  A    between atoms: _29  and  _30
REMARK   13  A    between atoms: _29  and  _32
REMARK   14  A    between atoms: _32  and  _33
REMARK   15  A    between atoms: _36  and  _38
REMARK   16  A    between atoms: _38  and  _39
REMARK   17  A    between atoms: _38  and  _41
REMARK   18  A    between atoms: _41  and  _42
REMARK   19  A    between atoms: _45  and  _47
REMARK   20  A    between atoms: _47  and  _48
REMARK   21  A    between atoms: _47  and  _50
REMARK   22  A    between atoms: _50  and  _51
REMARK   23  A    between atoms: _54  and  _56
REMARK   24  A    between atoms: _56  and  _57
REMARK   25  A    between atoms: _59  and  _61
REMARK   26  A    between atoms: _61  and  _62
REMARK   27  A    between atoms: _65  and  _67
REMARK   28  A    between atoms: _67  and  _68
REMARK   29  A    between atoms: _67  and  _70
REMARK   30  A    between atoms: _70  and  _71
REMARK   31  A    between atoms: _74  and  _76
REMARK   32  A    between atoms: _76  and  _77
REMARK   33  A    between atoms: _76  and  _79
REMARK   34  A    between atoms: _79  and  _80
REMARK   35  A    between atoms: _85  and  _87
REMARK   36  A    between atoms: _87  and  _88
REMARK   37  A    between atoms: _87  and  _90
REMARK   38  A    between atoms: _90  and  _91
REMARK   39  A    between atoms: _94  and  _96
REMARK   40  A    between atoms: _96  and  _97
REMARK   41  A    between atoms: _96  and  _99
REMARK   42  A    between atoms: _102  and  _104
REMARK   43  A    between atoms: _104  and  _105
REMARK   44  A    between atoms: _104  and  _107
REMARK   45  A    between atoms: _107  and  _108
REMARK   46  A    between atoms: _108  and  _109
REMARK   47  A    between atoms: _109  and  _110
REMARK   48  A    between atoms: _110  and  _111
REMARK   49  A    between atoms: _115  and  _117
REMARK   50  A    between atoms: _117  and  _118
REMARK   51  A    between atoms: _117  and  _120
REMARK   52  A    between atoms: _120  and  _121
REMARK   53  A    between atoms: _121  and  _122
REMARK   54  A    between atoms: _124  and  _126
REMARK   55  A    between atoms: _126  and  _127
REMARK   56  A    between atoms: _126  and  _129
REMARK   57  A    between atoms: _129  and  _130
REMARK   58  A    between atoms: _133  and  _135
REMARK   59  A    between atoms: _135  and  _136
REMARK   60  A    between atoms: _138  and  _140
REMARK   61  A    between atoms: _140  and  _141
REMARK   62  A    between atoms: _145  and  _146
REMARK   63  A    between atoms: _145  and  _148
REMARK   64  A    between atoms: _148  and  _149
REMARK   65  A    between atoms: _152  and  _154
REMARK   66  A    between atoms: _154  and  _155
REMARK   67  A    between atoms: _157  and  _159
REMARK   68  A    between atoms: _159  and  _160
REMARK   69  A    between atoms: _162  and  _164
REMARK   70  A    between atoms: _164  and  _165
REMARK   71  A    between atoms: _164  and  _167
REMARK   72  A    between atoms: _167  and  _168
REMARK   73  A    between atoms: _171  and  _173
REMARK   74  A    between atoms: _173  and  _174
REMARK   75  A    between atoms: _173  and  _176
REMARK   76  A    between atoms: _179  and  _181
REMARK   77  A    between atoms: _181  and  _182
REMARK   78  A    between atoms: _181  and  _184
REMARK   79  A    between atoms: _184  and  _185
REMARK   80  A    between atoms: _189  and  _190
REMARK   81  A    between atoms: _195  and  _197
REMARK   82  A    between atoms: _197  and  _198
REMARK   83  A    between atoms: _197  and  _200
REMARK   84  A    between atoms: _200  and  _201
REMARK   85  A    between atoms: _205  and  _206
REMARK   86  A    between atoms: _211  and  _213
REMARK   87  A    between atoms: _213  and  _214
REMARK   88  A    between atoms: _213  and  _216
REMARK   89  A    between atoms: _219  and  _221
REMARK   90  A    between atoms: _221  and  _222
REMARK   91  A    between atoms: _221  and  _224
REMARK   92  A    between atoms: _224  and  _225
REMARK   93  A    between atoms: _230  and  _232
REMARK   94  A    between atoms: _232  and  _233
REMARK   95  A    between atoms: _232  and  _235
REMARK   96  A    between atoms: _235  and  _236
REMARK   97  A    between atoms: _239  and  _241
REMARK   98  A    between atoms: _241  and  _242
REMARK   99  A    between atoms: _244  and  _246
REMARK  100  A    between atoms: _246  and  _247
REMARK  101  A    between atoms: _246  and  _249
REMARK  102  A    between atoms: _249  and  _250
REMARK  103  A    between atoms: _250  and  _251
REMARK  104  A    between atoms: _251  and  _252
REMARK  105  A    between atoms: _261  and  _263
REMARK  106  A    between atoms: _263  and  _264
REMARK  107  A    between atoms: _263  and  _266
REMARK  108  A    between atoms: _266  and  _267
REMARK  109  A    between atoms: _272  and  _274
REMARK  110  A    between atoms: _274  and  _275
REMARK  111  A    between atoms: _274  and  _277
REMARK  112  A    between atoms: _277  and  _278
REMARK  113  A    between atoms: _278  and  _279
REMARK  114  A    between atoms: _279  and  _280
REMARK  115  A    between atoms: _289  and  _291
REMARK  116  A    between atoms: _291  and  _292
REMARK  117  A    between atoms: _291  and  _294
REMARK  118  A    between atoms: _294  and  _295
REMARK  119  A    between atoms: _298  and  _300
REMARK  120  A    between atoms: _300  and  _301
REMARK  121  A    between atoms: _300  and  _303
REMARK  122  A    between atoms: _303  and  _304
REMARK  123  A    between atoms: _307  and  _309
REMARK  124  A    between atoms: _309  and  _310
REMARK  125  A    between atoms: _309  and  _312
REMARK  126  A    between atoms: _312  and  _313
REMARK  127  A    between atoms: _316  and  _318
REMARK  128  A    between atoms: _318  and  _319
REMARK  129  A    between atoms: _318  and  _321
REMARK  130  A    between atoms: _321  and  _322
REMARK  131  A    between atoms: _325  and  _327
REMARK  132  A    between atoms: _327  and  _328
REMARK  133  A    between atoms: _330  and  _332
REMARK  134  A    between atoms: _332  and  _333
REMARK  135  A    between atoms: _336  and  _338
REMARK  136  A    between atoms: _338  and  _339
REMARK  137  A    between atoms: _338  and  _341
REMARK  138  A    between atoms: _341  and  _342
REMARK  139  A    between atoms: _345  and  _347
REMARK  140  A    between atoms: _347  and  _348
REMARK  141  A    between atoms: _347  and  _350
REMARK  142  A    between atoms: _350  and  _351
REMARK  143  A    between atoms: _356  and  _358
REMARK  144  A    between atoms: _358  and  _359
REMARK  145  A    between atoms: _358  and  _361
REMARK  146  A    between atoms: _361  and  _362
REMARK  147  A    between atoms: _365  and  _367
REMARK  148  A    between atoms: _367  and  _368
REMARK  149  A    between atoms: _367  and  _370
REMARK  150  A    between atoms: _373  and  _375
REMARK  151  A    between atoms: _375  and  _376
REMARK  152  A    between atoms: _375  and  _378
REMARK  153  A    between atoms: _378  and  _379
REMARK  154  A    between atoms: _382  and  _384
REMARK  155  A    between atoms: _384  and  _385
REMARK  156  A    between atoms: _384  and  _387
REMARK  157  A    between atoms: _387  and  _388
REMARK  158  A    between atoms: _388  and  _389
REMARK  159  A    between atoms: _389  and  _390
REMARK  160  A    between atoms: _390  and  _391
REMARK  161  A    between atoms: _395  and  _397
REMARK  162  A    between atoms: _397  and  _398
REMARK  163  A    between atoms: _397  and  _400
REMARK  164  A    between atoms: _400  and  _401
REMARK  165  A    between atoms: _401  and  _402
REMARK  166  A    between atoms: _404  and  _406
REMARK  167  A    between atoms: _406  and  _407
REMARK  168  A    between atoms: _406  and  _409
REMARK  169  A    between atoms: _409  and  _410
REMARK  170  A    between atoms: _413  and  _415
REMARK  171  A    between atoms: _415  and  _416
REMARK  172  A    between atoms: _418  and  _420
REMARK  173  A    between atoms: _420  and  _421
REMARK  174  A    between atoms: _423  and  _425
REMARK  175  A    between atoms: _425  and  _426
REMARK  176  A    between atoms: _425  and  _428
REMARK  177  A    between atoms: _428  and  _429
REMARK  178  A    between atoms: _432  and  _434
REMARK  179  A    between atoms: _434  and  _435
REMARK  180  A    between atoms: _437  and  _439
REMARK  181  A    between atoms: _439  and  _440
REMARK  182  A    between atoms: _442  and  _444
REMARK  183  A    between atoms: _444  and  _445
REMARK  184  A    between atoms: _444  and  _447
REMARK  185  A    between atoms: _447  and  _448
REMARK  186  A    between atoms: _454  and  _456
REMARK  187  A    between atoms: _456  and  _457
REMARK  188  A    between atoms: _456  and  _459
REMARK  189  A    between atoms: _459  and  _460
REMARK  190  A    between atoms: _463  and  _465
REMARK  191  A    between atoms: _465  and  _466
REMARK  192  A    between atoms: _465  and  _468
REMARK  193  A    between atoms: _471  and  _473
REMARK  194  A    between atoms: _473  and  _474
REMARK  195  A    between atoms: _473  and  _476
REMARK  196  A    between atoms: _476  and  _477
REMARK  197  A    between atoms: _480  and  _482
REMARK  198  A    between atoms: _482  and  _483
REMARK  199  A    between atoms: _482  and  _485
REMARK  200  A    between atoms: _485  and  _486
REMARK  201  A    between atoms: _490  and  _491
REMARK  202  A    between atoms: _496  and  _498
REMARK  203  A    between atoms: _498  and  _499
REMARK  204  A    between atoms: _498  and  _501
REMARK  205  A    between atoms: _504  and  _506
REMARK  206  A    between atoms: _506  and  _507
REMARK  207  A    between atoms: _506  and  _509
REMARK  208  A    between atoms: _509  and  _510
REMARK  209  A    between atoms: _515  and  _517
REMARK  210  A    between atoms: _517  and  _518
REMARK  211  A    between atoms: _517  and  _520
REMARK  212  A    between atoms: _520  and  _521
REMARK  213  A    between atoms: _524  and  _526
REMARK  214  A    between atoms: _526  and  _527
REMARK  215  A    between atoms: _526  and  _529
REMARK  216  A    between atoms: _529  and  _530
REMARK  217  A    between atoms: _533  and  _535
REMARK  218  A    between atoms: _535  and  _536
REMARK  219  A    between atoms: _538  and  _540
REMARK  220  A    between atoms: _540  and  _541
REMARK  221  A    between atoms: _540  and  _543
REMARK  222  A    between atoms: _543  and  _544
REMARK  223  A    between atoms: _544  and  _545
REMARK  224  A    between atoms: _545  and  _546
REMARK                            x       y       z     vdW  Elec       q    Type
REMARK                         _______ _______ _______ _____ _____    ______ ____
ROOT
ATOM      1  CA  ARG A   2     -12.653  23.627  18.643  0.00  0.00    +0.149 C 
ENDROOT
BRANCH   1   3
ATOM      2  C   GLY A   1     -13.728  21.476  19.076  0.00  0.00    +0.240 C 
ATOM      3  N   ARG A   2     -12.645  22.242  19.106  0.00  0.00    -0.297 N 
ATOM      4  H   ARG A   2     -11.758  21.841  19.473  0.00  0.00    +0.150 HD
ATOM      5  O   GLY A   1     -14.754  21.777  18.449  0.00  0.00    -0.274 OA
BRANCH   2   6
ATOM      6  CA  GLY A   1     -13.625  20.165  19.821  0.00  0.00    +0.169 C 
BRANCH   6   7
ATOM      7  N   GLY A   1     -14.827  19.361  19.635  0.00  0.00    -0.236 NA
ATOM      8  H   GLY A   1     -14.867  18.701  18.832  0.00  0.00    +0.142 HD
ENDBRANCH   6   7
ENDBRANCH   2   6
ENDBRANCH   1   3
BRANCH   1   9
ATOM      9  C   ARG A   2     -12.886  23.814  17.143  0.00  0.00    +0.241 C 
ATOM     10  O   ARG A   2     -13.442  24.837  16.731  0.00  0.00    -0.273 OA
ATOM     11  N   ASN A   3     -12.475  22.843  16.329  0.00  0.00    -0.298 N 
ATOM     12  H   ASN A   3     -11.960  22.030  16.723  0.00  0.00    +0.150 HD
BRANCH  11  13
ATOM     13  CA  ASN A   3     -12.736  22.900  14.888  0.00  0.00    +0.146 C 
BRANCH  13  14
ATOM     14  C   ASN A   3     -14.239  23.137  14.573  0.00  0.00    +0.227 C 
ATOM     15  O   ASN A   3     -14.575  23.809  13.592  0.00  0.00    -0.286 OA
ENDBRANCH  13  14
BRANCH  13  16
ATOM     16  CB  ASN A   3     -12.211  21.631  14.198  0.00  0.00    +0.112 C 
BRANCH  16  17
ATOM     17  CG  ASN A   3     -13.055  20.375  14.521  0.00  0.00    +0.222 C 
ATOM     18  OD1 ASN A   3     -13.246  20.025  15.690  0.00  0.00    -0.275 OA
ATOM     19  ND2 ASN A   3     -13.554  19.708  13.484  0.00  0.00    -0.329 N 
ATOM     20 HD21 ASN A   3     -14.130  18.856  13.642  0.00  0.00    +0.145 HD
ATOM     21 HD22 ASN A   3     -13.368  20.038  12.515  0.00  0.00    +0.145 HD
ENDBRANCH  16  17
ENDBRANCH  13  16
ENDBRANCH  11  13
ENDBRANCH   1   9
BRANCH   1  22
ATOM     22  CB  ARG A   2     -11.371  24.347  19.072  0.00  0.00    +0.033 C 
BRANCH  22  23
ATOM     23  CG  ARG A   2     -11.221  24.558  20.582  0.00  0.00    +0.045 C 
BRANCH  23  24
ATOM     24  CD  ARG A   2      -9.984  25.408  20.897  0.00  0.00    +0.174 C 
BRANCH  24  25
ATOM     25  NE  ARG A   2      -8.733  24.812  20.415  0.00  0.00    -0.265 N 
ATOM     26  HE  ARG A   2      -8.287  24.093  21.020  0.00  0.00    +0.259 HD
ATOM     27  CZ  ARG A   2      -8.116  25.111  19.269  0.00  0.00    +0.342 C 
ATOM     28  NH2 ARG A   2      -6.983  24.496  18.958  0.00  0.00    -0.292 N 
ATOM     29 HH21 ARG A   2      -6.582  23.787  19.605  0.00  0.00    +0.255 HD
ATOM     30 HH22 ARG A   2      -6.496  24.723  18.068  0.00  0.00    +0.255 HD
ATOM     31  NH1 ARG A   2      -8.614  26.008  18.421  0.00  0.00    -0.292 N 
ATOM     32 HH11 ARG A   2      -9.505  26.496  18.644  0.00  0.00    +0.255 HD
ATOM     33 HH12 ARG A   2      -8.112  26.221  17.535  0.00  0.00    +0.255 HD
ENDBRANCH  24  25
ENDBRANCH  23  24
ENDBRANCH  22  23
ENDBRANCH   1  22
TORSDOF 12
REMARK  Name = ../refined-set-2016/2q64/2q64_pocket.pdb
REMARK  224 active torsions:
REMARK  status: ('A' for Active; 'I' for Inactive)
REMARK    1  A    between atoms: _1  and  _3
REMARK    2  A    between atoms: _3  and  _4
REMARK    3  A    between atoms: _3  and  _6
REMARK    4  A    between atoms: _6  and  _7
REMARK    5  A    between atoms: _7  and  _8
REMARK    6  A    between atoms: _8  and  _9
REMARK    7  A    between atoms: _18  and  _20
REMARK    8  A    between atoms: _20  and  _21
REMARK    9  A    between atoms: _20  and  _23
REMARK   10  A    between atoms: _23  and  _24
REMARK   11  A    between atoms: _27  and  _29
REMARK   12  A    between atoms: _29  and  _30
REMARK   13  A    between atoms: _29  and  _32
REMARK   14  A    between atoms: _32  and  _33
REMARK   15  A    between atoms: _36  and  _38
REMARK   16  A    between atoms: _38  and  _39
REMARK   17  A    between atoms: _38  and  _41
REMARK   18  A    between atoms: _41  and  _42
REMARK   19  A    between atoms: _45  and  _47
REMARK   20  A    between atoms: _47  and  _48
REMARK   21  A    between atoms: _47  and  _50
REMARK   22  A    between atoms: _50  and  _51
REMARK   23  A    between atoms: _54  and  _56
REMARK   24  A    between atoms: _56  and  _57
REMARK   25  A    between atoms: _59  and  _61
REMARK   26  A    between atoms: _61  and  _62
REMARK   27  A    between atoms: _65  and  _67
REMARK   28  A    between atoms: _67  and  _68
REMARK   29  A    between atoms: _67  and  _70
REMARK   30  A    between atoms: _70  and  _71
REMARK   31  A    between atoms: _74  and  _76
REMARK   32  A    between atoms: _76  and  _77
REMARK   33  A    between atoms: _76  and  _79
REMARK   34  A    between atoms: _79  and  _80
REMARK   35  A    between atoms: _85  and  _87
REMARK   36  A    between atoms: _87  and  _88
REMARK   37  A    between atoms: _87  and  _90
REMARK   38  A    between atoms: _90  and  _91
REMARK   39  A    between atoms: _94  and  _96
REMARK   40  A    between atoms: _96  and  _97
REMARK   41  A    between atoms: _96  and  _99
REMARK   42  A    between atoms: _102  and  _104
REMARK   43  A    between atoms: _104  and  _105
REMARK   44  A    between atoms: _104  and  _107
REMARK   45  A    between atoms: _107  and  _108
REMARK   46  A    between atoms: _108  and  _109
REMARK   47  A    between atoms: _109  and  _110
REMARK   48  A    between atoms: _110  and  _111
REMARK   49  A    between atoms: _115  and  _117
REMARK   50  A    between atoms: _117  and  _118
REMARK   51  A    between atoms: _117  and  _120
REMARK   52  A    between atoms: _120  and  _121
REMARK   53  A    between atoms: _121  and  _122
REMARK   54  A    between atoms: _124  and  _126
REMARK   55  A    between atoms: _126  and  _127
REMARK   56  A    between atoms: _126  and  _129
REMARK   57  A    between atoms: _129  and  _130
REMARK   58  A    between atoms: _133  and  _135
REMARK   59  A    between atoms: _135  and  _136
REMARK   60  A    between atoms: _138  and  _140
REMARK   61  A    between atoms: _140  and  _141
REMARK   62  A    between atoms: _145  and  _146
REMARK   63  A    between atoms: _145  and  _148
REMARK   64  A    between atoms: _148  and  _149
REMARK   65  A    between atoms: _152  and  _154
REMARK   66  A    between atoms: _154  and  _155
REMARK   67  A    between atoms: _157  and  _159
REMARK   68  A    between atoms: _159  and  _160
REMARK   69  A    between atoms: _162  and  _164
REMARK   70  A    between atoms: _164  and  _165
REMARK   71  A    between atoms: _164  and  _167
REMARK   72  A    between atoms: _167  and  _168
REMARK   73  A    between atoms: _171  and  _173
REMARK   74  A    between atoms: _173  and  _174
REMARK   75  A    between atoms: _173  and  _176
REMARK   76  A    between atoms: _179  and  _181
REMARK   77  A    between atoms: _181  and  _182
REMARK   78  A    between atoms: _181  and  _184
REMARK   79  A    between atoms: _184  and  _185
REMARK   80  A    between atoms: _189  and  _190
REMARK   81  A    between atoms: _195  and  _197
REMARK   82  A    between atoms: _197  and  _198
REMARK   83  A    between atoms: _197  and  _200
REMARK   84  A    between atoms: _200  and  _201
REMARK   85  A    between atoms: _205  and  _206
REMARK   86  A    between atoms: _211  and  _213
REMARK   87  A    between atoms: _213  and  _214
REMARK   88  A    between atoms: _213  and  _216
REMARK   89  A    between atoms: _219  and  _221
REMARK   90  A    between atoms: _221  and  _222
REMARK   91  A    between atoms: _221  and  _224
REMARK   92  A    between atoms: _224  and  _225
REMARK   93  A    between atoms: _230  and  _232
REMARK   94  A    between atoms: _232  and  _233
REMARK   95  A    between atoms: _232  and  _235
REMARK   96  A    between atoms: _235  and  _236
REMARK   97  A    between atoms: _239  and  _241
REMARK   98  A    between atoms: _241  and  _242
REMARK   99  A    between atoms: _244  and  _246
REMARK  100  A    between atoms: _246  and  _247
REMARK  101  A    between atoms: _246  and  _249
REMARK  102  A    between atoms: _249  and  _250
REMARK  103  A    between atoms: _250  and  _251
REMARK  104  A    between atoms: _251  and  _252
REMARK  105  A    between atoms: _261  and  _263
REMARK  106  A    between atoms: _263  and  _264
REMARK  107  A    between atoms: _263  and  _266
REMARK  108  A    between atoms: _266  and  _267
REMARK  109  A    between atoms: _272  and  _274
REMARK  110  A    between atoms: _274  and  _275
REMARK  111  A    between atoms: _274  and  _277
REMARK  112  A    between atoms: _277  and  _278
REMARK  113  A    between atoms: _278  and  _279
REMARK  114  A    between atoms: _279  and  _280
REMARK  115  A    between atoms: _289  and  _291
REMARK  116  A    between atoms: _291  and  _292
REMARK  117  A    between atoms: _291  and  _294
REMARK  118  A    between atoms: _294  and  _295
REMARK  119  A    between atoms: _298  and  _300
REMARK  120  A    between atoms: _300  and  _301
REMARK  121  A    between atoms: _300  and  _303
REMARK  122  A    between atoms: _303  and  _304
REMARK  123  A    between atoms: _307  and  _309
REMARK  124  A    between atoms: _309  and  _310
REMARK  125  A    between atoms: _309  and  _312
REMARK  126  A    between atoms: _312  and  _313
REMARK  127  A    between atoms: _316  and  _318
REMARK  128  A    between atoms: _318  and  _319
REMARK  129  A    between atoms: _318  and  _321
REMARK  130  A    between atoms: _321  and  _322
REMARK  131  A    between atoms: _325  and  _327
REMARK  132  A    between atoms: _327  and  _328
REMARK  133  A    between atoms: _330  and  _332
REMARK  134  A    between atoms: _332  and  _333
REMARK  135  A    between atoms: _336  and  _338
REMARK  136  A    between atoms: _338  and  _339
REMARK  137  A    between atoms: _338  and  _341
REMARK  138  A    between atoms: _341  and  _342
REMARK  139  A    between atoms: _345  and  _347
REMARK  140  A    between atoms: _347  and  _348
REMARK  141  A    between atoms: _347  and  _350
REMARK  142  A    between atoms: _350  and  _351
REMARK  143  A    between atoms: _356  and  _358
REMARK  144  A    between atoms: _358  and  _359
REMARK  145  A    between atoms: _358  and  _361
REMARK  146  A    between atoms: _361  and  _362
REMARK  147  A    between atoms: _365  and  _367
REMARK  148  A    between atoms: _367  and  _368
REMARK  149  A    between atoms: _367  and  _370
REMARK  150  A    between atoms: _373  and  _375
REMARK  151  A    between atoms: _375  and  _376
REMARK  152  A    between atoms: _375  and  _378
REMARK  153  A    between atoms: _378  and  _379
REMARK  154  A    between atoms: _382  and  _384
REMARK  155  A    between atoms: _384  and  _385
REMARK  156  A    between atoms: _384  and  _387
REMARK  157  A    between atoms: _387  and  _388
REMARK  158  A    between atoms: _388  and  _389
REMARK  159  A    between atoms: _389  and  _390
REMARK  160  A    between atoms: _390  and  _391
REMARK  161  A    between atoms: _395  and  _397
REMARK  162  A    between atoms: _397  and  _398
REMARK  163  A    between atoms: _397  and  _400
REMARK  164  A    between atoms: _400  and  _401
REMARK  165  A    between atoms: _401  and  _402
REMARK  166  A    between atoms: _404  and  _406
REMARK  167  A    between atoms: _406  and  _407
REMARK  168  A    between atoms: _406  and  _409
REMARK  169  A    between atoms: _409  and  _410
REMARK  170  A    between atoms: _413  and  _415
REMARK  171  A    between atoms: _415  and  _416
REMARK  172  A    between atoms: _418  and  _420
REMARK  173  A    between atoms: _420  and  _421
REMARK  174  A    between atoms: _423  and  _425
REMARK  175  A    between atoms: _425  and  _426
REMARK  176  A    between atoms: _425  and  _428
REMARK  177  A    between atoms: _428  and  _429
REMARK  178  A    between atoms: _432  and  _434
REMARK  179  A    between atoms: _434  and  _435
REMARK  180  A    between atoms: _437  and  _439
REMARK  181  A    between atoms: _439  and  _440
REMARK  182  A    between atoms: _442  and  _444
REMARK  183  A    between atoms: _444  and  _445
REMARK  184  A    between atoms: _444  and  _447
REMARK  185  A    between atoms: _447  and  _448
REMARK  186  A    between atoms: _454  and  _456
REMARK  187  A    between atoms: _456  and  _457
REMARK  188  A    between atoms: _456  and  _459
REMARK  189  A    between atoms: _459  and  _460
REMARK  190  A    between atoms: _463  and  _465
REMARK  191  A    between atoms: _465  and  _466
REMARK  192  A    between atoms: _465  and  _468
REMARK  193  A    between atoms: _471  and  _473
REMARK  194  A    between atoms: _473  and  _474
REMARK  195  A    between atoms: _473  and  _476
REMARK  196  A    between atoms: _476  and  _477
REMARK  197  A    between atoms: _480  and  _482
REMARK  198  A    between atoms: _482  and  _483
REMARK  199  A    between atoms: _482  and  _485
REMARK  200  A    between atoms: _485  and  _486
REMARK  201  A    between atoms: _490  and  _491
REMARK  202  A    between atoms: _496  and  _498
REMARK  203  A    between atoms: _498  and  _499
REMARK  204  A    between atoms: _498  and  _501
REMARK  205  A    between atoms: _504  and  _506
REMARK  206  A    between atoms: _506  and  _507
REMARK  207  A    between atoms: _506  and  _509
REMARK  208  A    between atoms: _509  and  _510
REMARK  209  A    between atoms: _515  and  _517
REMARK  210  A    between atoms: _517  and  _518
REMARK  211  A    between atoms: _517  and  _520
REMARK  212  A    between atoms: _520  and  _521
REMARK  213  A    between atoms: _524  and  _526
REMARK  214  A    between atoms: _526  and  _527
REMARK  215  A    between atoms: _526  and  _529
REMARK  216  A    between atoms: _529  and  _530
REMARK  217  A    between atoms: _533  and  _535
REMARK  218  A    between atoms: _535  and  _536
REMARK  219  A    between atoms: _538  and  _540
REMARK  220  A    between atoms: _540  and  _541
REMARK  221  A    between atoms: _540  and  _543
REMARK  222  A    between atoms: _543  and  _544
REMARK  223  A    between atoms: _544  and  _545
REMARK  224  A    between atoms: _545  and  _546
REMARK                            x       y       z     vdW  Elec       q    Type
REMARK                         _______ _______ _______ _____ _____    ______ ____
ROOT
ATOM      1  NE  ARG A   1      -3.360  22.681  21.527  0.00  0.00    -0.265 N 
ATOM      2  CZ  ARG A   1      -2.899  21.584  22.137  0.00  0.00    +0.342 C 
ATOM      3  NH2 ARG A   1      -2.508  21.632  23.408  0.00  0.00    -0.292 N 
ATOM      4 HH21 ARG A   1      -2.560  22.527  23.934  0.00  0.00    +0.255 HD
ATOM      5 HH22 ARG A   1      -2.151  20.774  23.875  0.00  0.00    +0.255 HD
ATOM      6  NH1 ARG A   1      -2.845  20.427  21.474  0.00  0.00    -0.292 N 
ATOM      7 HH11 ARG A   1      -2.487  19.573  21.947  0.00  0.00    +0.255 HD
ATOM      8 HH12 ARG A   1      -3.161  20.380  20.484  0.00  0.00    +0.255 HD
ATOM      9  HE  ARG A   1      -3.670  22.586  20.539  0.00  0.00    +0.259 HD
ENDROOT
BRANCH   1  10
ATOM     10  CD  ARG A   1      -3.462  24.009  22.143  0.00  0.00    +0.174 C 
BRANCH  10  11
ATOM     11  CG  ARG A   1      -4.683  24.797  21.660  0.00  0.00    +0.045 C 
BRANCH  11  12
ATOM     12  CB  ARG A   1      -4.823  26.110  22.438  0.00  0.00    +0.029 C 
BRANCH  12  13
ATOM     13  CA  ARG A   1      -6.046  26.952  22.075  0.00  0.00    +0.133 C 
BRANCH  13  14
ATOM     14  N   ARG A   1      -5.911  27.540  20.733  0.00  0.00    -0.239 NA
ATOM     15  H   ARG A   1      -5.066  27.328  20.166  0.00  0.00    +0.142 HD
ENDBRANCH  13  14
BRANCH  13  16
ATOM     16  C   ARG A   1      -6.236  28.082  23.098  0.00  0.00    +0.224 C 
ATOM     17  O   ARG A   1      -5.476  29.058  23.076  0.00  0.00    -0.287 OA
ENDBRANCH  13  16
ENDBRANCH  12  13
ENDBRANCH  11  12
ENDBRANCH  10  11
ENDBRANCH   1  10
TORSDOF 6
REMARK  Name = ../refined-set-2016/2q64/2q64_pocket.pdb
REMARK  224 active torsions:
REMARK  status: ('A' for Active; 'I' for Inactive)
REMARK    1  A    between atoms: _1  and  _3
REMARK    2  A    between atoms: _3  and  _4
REMARK    3  A    between atoms: _3  and  _6
REMARK    4  A    between atoms: _6  and  _7
REMARK    5  A    between atoms: _7  and  _8
REMARK    6  A    between atoms: _8  and  _9
REMARK    7  A    between atoms: _18  and  _20
REMARK    8  A    between atoms: _20  and  _21
REMARK    9  A    between atoms: _20  and  _23
REMARK   10  A    between atoms: _23  and  _24
REMARK   11  A    between atoms: _27  and  _29
REMARK   12  A    between atoms: _29  and  _30
REMARK   13  A    between atoms: _29  and  _32
REMARK   14  A    between atoms: _32  and  _33
REMARK   15  A    between atoms: _36  and  _38
REMARK   16  A    between atoms: _38  and  _39
REMARK   17  A    between atoms: _38  and  _41
REMARK   18  A    between atoms: _41  and  _42
REMARK   19  A    between atoms: _45  and  _47
REMARK   20  A    between atoms: _47  and  _48
REMARK   21  A    between atoms: _47  and  _50
REMARK   22  A    between atoms: _50  and  _51
REMARK   23  A    between atoms: _54  and  _56
REMARK   24  A    between atoms: _56  and  _57
REMARK   25  A    between atoms: _59  and  _61
REMARK   26  A    between atoms: _61  and  _62
REMARK   27  A    between atoms: _65  and  _67
REMARK   28  A    between atoms: _67  and  _68
REMARK   29  A    between atoms: _67  and  _70
REMARK   30  A    between atoms: _70  and  _71
REMARK   31  A    between atoms: _74  and  _76
REMARK   32  A    between atoms: _76  and  _77
REMARK   33  A    between atoms: _76  and  _79
REMARK   34  A    between atoms: _79  and  _80
REMARK   35  A    between atoms: _85  and  _87
REMARK   36  A    between atoms: _87  and  _88
REMARK   37  A    between atoms: _87  and  _90
REMARK   38  A    between atoms: _90  and  _91
REMARK   39  A    between atoms: _94  and  _96
REMARK   40  A    between atoms: _96  and  _97
REMARK   41  A    between atoms: _96  and  _99
REMARK   42  A    between atoms: _102  and  _104
REMARK   43  A    between atoms: _104  and  _105
REMARK   44  A    between atoms: _104  and  _107
REMARK   45  A    between atoms: _107  and  _108
REMARK   46  A    between atoms: _108  and  _109
REMARK   47  A    between atoms: _109  and  _110
REMARK   48  A    between atoms: _110  and  _111
REMARK   49  A    between atoms: _115  and  _117
REMARK   50  A    between atoms: _117  and  _118
REMARK   51  A    between atoms: _117  and  _120
REMARK   52  A    between atoms: _120  and  _121
REMARK   53  A    between atoms: _121  and  _122
REMARK   54  A    between atoms: _124  and  _126
REMARK   55  A    between atoms: _126  and  _127
REMARK   56  A    between atoms: _126  and  _129
REMARK   57  A    between atoms: _129  and  _130
REMARK   58  A    between atoms: _133  and  _135
REMARK   59  A    between atoms: _135  and  _136
REMARK   60  A    between atoms: _138  and  _140
REMARK   61  A    between atoms: _140  and  _141
REMARK   62  A    between atoms: _145  and  _146
REMARK   63  A    between atoms: _145  and  _148
REMARK   64  A    between atoms: _148  and  _149
REMARK   65  A    between atoms: _152  and  _154
REMARK   66  A    between atoms: _154  and  _155
REMARK   67  A    between atoms: _157  and  _159
REMARK   68  A    between atoms: _159  and  _160
REMARK   69  A    between atoms: _162  and  _164
REMARK   70  A    between atoms: _164  and  _165
REMARK   71  A    between atoms: _164  and  _167
REMARK   72  A    between atoms: _167  and  _168
REMARK   73  A    between atoms: _171  and  _173
REMARK   74  A    between atoms: _173  and  _174
REMARK   75  A    between atoms: _173  and  _176
REMARK   76  A    between atoms: _179  and  _181
REMARK   77  A    between atoms: _181  and  _182
REMARK   78  A    between atoms: _181  and  _184
REMARK   79  A    between atoms: _184  and  _185
REMARK   80  A    between atoms: _189  and  _190
REMARK   81  A    between atoms: _195  and  _197
REMARK   82  A    between atoms: _197  and  _198
REMARK   83  A    between atoms: _197  and  _200
REMARK   84  A    between atoms: _200  and  _201
REMARK   85  A    between atoms: _205  and  _206
REMARK   86  A    between atoms: _211  and  _213
REMARK   87  A    between atoms: _213  and  _214
REMARK   88  A    between atoms: _213  and  _216
REMARK   89  A    between atoms: _219  and  _221
REMARK   90  A    between atoms: _221  and  _222
REMARK   91  A    between atoms: _221  and  _224
REMARK   92  A    between atoms: _224  and  _225
REMARK   93  A    between atoms: _230  and  _232
REMARK   94  A    between atoms: _232  and  _233
REMARK   95  A    between atoms: _232  and  _235
REMARK   96  A    between atoms: _235  and  _236
REMARK   97  A    between atoms: _239  and  _241
REMARK   98  A    between atoms: _241  and  _242
REMARK   99  A    between atoms: _244  and  _246
REMARK  100  A    between atoms: _246  and  _247
REMARK  101  A    between atoms: _246  and  _249
REMARK  102  A    between atoms: _249  and  _250
REMARK  103  A    between atoms: _250  and  _251
REMARK  104  A    between atoms: _251  and  _252
REMARK  105  A    between atoms: _261  and  _263
REMARK  106  A    between atoms: _263  and  _264
REMARK  107  A    between atoms: _263  and  _266
REMARK  108  A    between atoms: _266  and  _267
REMARK  109  A    between atoms: _272  and  _274
REMARK  110  A    between atoms: _274  and  _275
REMARK  111  A    between atoms: _274  and  _277
REMARK  112  A    between atoms: _277  and  _278
REMARK  113  A    between atoms: _278  and  _279
REMARK  114  A    between atoms: _279  and  _280
REMARK  115  A    between atoms: _289  and  _291
REMARK  116  A    between atoms: _291  and  _292
REMARK  117  A    between atoms: _291  and  _294
REMARK  118  A    between atoms: _294  and  _295
REMARK  119  A    between atoms: _298  and  _300
REMARK  120  A    between atoms: _300  and  _301
REMARK  121  A    between atoms: _300  and  _303
REMARK  122  A    between atoms: _303  and  _304
REMARK  123  A    between atoms: _307  and  _309
REMARK  124  A    between atoms: _309  and  _310
REMARK  125  A    between atoms: _309  and  _312
REMARK  126  A    between atoms: _312  and  _313
REMARK  127  A    between atoms: _316  and  _318
REMARK  128  A    between atoms: _318  and  _319
REMARK  129  A    between atoms: _318  and  _321
REMARK  130  A    between atoms: _321  and  _322
REMARK  131  A    between atoms: _325  and  _327
REMARK  132  A    between atoms: _327  and  _328
REMARK  133  A    between atoms: _330  and  _332
REMARK  134  A    between atoms: _332  and  _333
REMARK  135  A    between atoms: _336  and  _338
REMARK  136  A    between atoms: _338  and  _339
REMARK  137  A    between atoms: _338  and  _341
REMARK  138  A    between atoms: _341  and  _342
REMARK  139  A    between atoms: _345  and  _347
REMARK  140  A    between atoms: _347  and  _348
REMARK  141  A    between atoms: _347  and  _350
REMARK  142  A    between atoms: _350  and  _351
REMARK  143  A    between atoms: _356  and  _358
REMARK  144  A    between atoms: _358  and  _359
REMARK  145  A    between atoms: _358  and  _361
REMARK  146  A    between atoms: _361  and  _362
REMARK  147  A    between atoms: _365  and  _367
REMARK  148  A    between atoms: _367  and  _368
REMARK  149  A    between atoms: _367  and  _370
REMARK  150  A    between atoms: _373  and  _375
REMARK  151  A    between atoms: _375  and  _376
REMARK  152  A    between atoms: _375  and  _378
REMARK  153  A    between atoms: _378  and  _379
REMARK  154  A    between atoms: _382  and  _384
REMARK  155  A    between atoms: _384  and  _385
REMARK  156  A    between atoms: _384  and  _387
REMARK  157  A    between atoms: _387  and  _388
REMARK  158  A    between atoms: _388  and  _389
REMARK  159  A    between atoms: _389  and  _390
REMARK  160  A    between atoms: _390  and  _391
REMARK  161  A    between atoms: _395  and  _397
REMARK  162  A    between atoms: _397  and  _398
REMARK  163  A    between atoms: _397  and  _400
REMARK  164  A    between atoms: _400  and  _401
REMARK  165  A    between atoms: _401  and  _402
REMARK  166  A    between atoms: _404  and  _406
REMARK  167  A    between atoms: _406  and  _407
REMARK  168  A    between atoms: _406  and  _409
REMARK  169  A    between atoms: _409  and  _410
REMARK  170  A    between atoms: _413  and  _415
REMARK  171  A    between atoms: _415  and  _416
REMARK  172  A    between atoms: _418  and  _420
REMARK  173  A    between atoms: _420  and  _421
REMARK  174  A    between atoms: _423  and  _425
REMARK  175  A    between atoms: _425  and  _426
REMARK  176  A    between atoms: _425  and  _428
REMARK  177  A    between atoms: _428  and  _429
REMARK  178  A    between atoms: _432  and  _434
REMARK  179  A    between atoms: _434  and  _435
REMARK  180  A    between atoms: _437  and  _439
REMARK  181  A    between atoms: _439  and  _440
REMARK  182  A    between atoms: _442  and  _444
REMARK  183  A    between atoms: _444  and  _445
REMARK  184  A    between atoms: _444  and  _447
REMARK  185  A    between atoms: _447  and  _448
REMARK  186  A    between atoms: _454  and  _456
REMARK  187  A    between atoms: _456  and  _457
REMARK  188  A    between atoms: _456  and  _459
REMARK  189  A    between atoms: _459  and  _460
REMARK  190  A    between atoms: _463  and  _465
REMARK  191  A    between atoms: _465  and  _466
REMARK  192  A    between atoms: _465  and  _468
REMARK  193  A    between atoms: _471  and  _473
REMARK  194  A    between atoms: _473  and  _474
REMARK  195  A    between atoms: _473  and  _476
REMARK  196  A    between atoms: _476  and  _477
REMARK  197  A    between atoms: _480  and  _482
REMARK  198  A    between atoms: _482  and  _483
REMARK  199  A    between atoms: _482  and  _485
REMARK  200  A    between atoms: _485  and  _486
REMARK  201  A    between atoms: _490  and  _491
REMARK  202  A    between atoms: _496  and  _498
REMARK  203  A    between atoms: _498  and  _499
REMARK  204  A    between atoms: _498  and  _501
REMARK  205  A    between atoms: _504  and  _506
REMARK  206  A    between atoms: _506  and  _507
REMARK  207  A    between atoms: _506  and  _509
REMARK  208  A    between atoms: _509  and  _510
REMARK  209  A    between atoms: _515  and  _517
REMARK  210  A    between atoms: _517  and  _518
REMARK  211  A    between atoms: _517  and  _520
REMARK  212  A    between atoms: _520  and  _521
REMARK  213  A    between atoms: _524  and  _526
REMARK  214  A    between atoms: _526  and  _527
REMARK  215  A    between atoms: _526  and  _529
REMARK  216  A    between atoms: _529  and  _530
REMARK  217  A    between atoms: _533  and  _535
REMARK  218  A    between atoms: _535  and  _536
REMARK  219  A    between atoms: _538  and  _540
REMARK  220  A    between atoms: _540  and  _541
REMARK  221  A    between atoms: _540  and  _543
REMARK  222  A    between atoms: _543  and  _544
REMARK  223  A    between atoms: _544  and  _545
REMARK  224  A    between atoms: _545  and  _546
REMARK                            x       y       z     vdW  Elec       q    Type
REMARK                         _______ _______ _______ _____ _____    ______ ____
ROOT
ATOM      1  C   ALA A   6     -12.586  18.632  33.225  0.00  0.00    +0.241 C 
ATOM      2  N   ASP A   7     -12.883  17.586  33.990  0.00  0.00    -0.297 N 
ATOM      3  H   ASP A   7     -12.655  16.631  33.648  0.00  0.00    +0.150 HD
ATOM      4  O   ALA A   6     -12.890  19.803  33.529  0.00  0.00    -0.273 OA
ENDROOT
BRANCH   1   5
ATOM      5  CA  ALA A   6     -11.830  18.323  31.924  0.00  0.00    +0.149 C 
ATOM      6  CB  ALA A   6     -10.384  18.843  32.002  0.00  0.00    +0.031 C 
BRANCH   5   8
ATOM      7  C   GLY A   5     -13.250  18.181  29.914  0.00  0.00    +0.243 C 
ATOM      8  N   ALA A   6     -12.524  18.907  30.769  0.00  0.00    -0.297 N 
ATOM      9  H   ALA A   6     -12.447  19.932  30.609  0.00  0.00    +0.150 HD
ATOM     10  O   GLY A   5     -13.380  16.955  30.024  0.00  0.00    -0.273 OA
BRANCH   7  11
ATOM     11  CA  GLY A   5     -13.946  18.922  28.772  0.00  0.00    +0.176 C 
BRANCH  11  14
ATOM     12  C   THR A   4     -14.655  21.155  29.556  0.00  0.00    +0.243 C 
ATOM     13  O   THR A   4     -15.557  20.716  30.248  0.00  0.00    -0.273 OA
ATOM     14  N   GLY A   5     -13.868  20.383  28.802  0.00  0.00    -0.295 N 
ATOM     15  H   GLY A   5     -13.158  20.848  28.201  0.00  0.00    +0.150 HD
BRANCH  12  16
ATOM     16  CA  THR A   4     -14.345  22.656  29.565  0.00  0.00    +0.176 C 
BRANCH  16  19
ATOM     17  C   ASP A   3     -11.906  22.592  29.923  0.00  0.00    +0.241 C 
ATOM     18  O   ASP A   3     -11.993  21.959  30.983  0.00  0.00    -0.273 OA
ATOM     19  N   THR A   4     -12.959  22.941  29.182  0.00  0.00    -0.295 N 
ATOM     20  H   THR A   4     -12.788  23.441  28.286  0.00  0.00    +0.150 HD
BRANCH  17  21
ATOM     21  CA  ASP A   3     -10.547  23.037  29.374  0.00  0.00    +0.160 C 
BRANCH  21  23
ATOM     22  C   LEU A   2      -9.797  25.338  29.143  0.00  0.00    +0.241 C 
ATOM     23  N   ASP A   3     -10.166  24.323  29.916  0.00  0.00    -0.297 N 
ATOM     24  H   ASP A   3     -10.182  24.457  30.947  0.00  0.00    +0.150 HD
ATOM     25  O   LEU A   2     -10.097  25.437  27.951  0.00  0.00    -0.273 OA
BRANCH  22  26
ATOM     26  CA  LEU A   2      -8.955  26.410  29.824  0.00  0.00    +0.149 C 
BRANCH  26  29
ATOM     27  C   LEU A   1      -6.701  25.422  29.586  0.00  0.00    +0.238 C 
ATOM     28  O   LEU A   1      -6.890  24.612  30.493  0.00  0.00    -0.274 OA
ATOM     29  N   LEU A   2      -7.583  26.384  29.270  0.00  0.00    -0.297 N 
ATOM     30  H   LEU A   2      -7.292  27.136  28.614  0.00  0.00    +0.150 HD
BRANCH  27  31
ATOM     31  CA  LEU A   1      -5.386  25.374  28.794  0.00  0.00    +0.145 C 
BRANCH  31  32
ATOM     32  N   LEU A   1      -4.262  25.462  29.712  0.00  0.00    -0.238 NA
ATOM     33  H   LEU A   1      -3.882  24.576  30.101  0.00  0.00    +0.142 HD
ENDBRANCH  31  32
BRANCH  31  34
ATOM     34  CB  LEU A   1      -5.256  24.053  28.031  0.00  0.00    +0.026 C 
BRANCH  34  35
ATOM     35  CG  LEU A   1      -6.140  23.679  26.842  0.00  0.00    +0.002 C 
ATOM     36  CD2 LEU A   1      -5.915  22.191  26.496  0.00  0.00    +0.000 C 
ATOM     37  CD1 LEU A   1      -5.841  24.554  25.643  0.00  0.00    +0.000 C 
ENDBRANCH  34  35
ENDBRANCH  31  34
ENDBRANCH  27  31
ENDBRANCH  26  29
BRANCH  26  38
ATOM     38  CB  LEU A   2      -9.619  27.774  29.658  0.00  0.00    +0.029 C 
BRANCH  38  39
ATOM     39  CG  LEU A   2      -8.925  29.015  30.211  0.00  0.00    +0.002 C 
ATOM     40  CD2 LEU A   2      -8.780  28.973  31.743  0.00  0.00    +0.000 C 
ATOM     41  CD1 LEU A   2      -9.721  30.242  29.763  0.00  0.00    +0.000 C 
ENDBRANCH  38  39
ENDBRANCH  26  38
ENDBRANCH  22  26
ENDBRANCH  21  23
BRANCH  21  42
ATOM     42  CB  ASP A   3      -9.455  22.018  29.693  0.00  0.00    +0.143 C 
BRANCH  42  43
ATOM     43  CG  ASP A   3      -9.641  20.687  28.962  0.00  0.00    +0.367 C 
ATOM     44  OD2 ASP A   3      -8.688  19.883  28.998  0.00  0.00    -0.246 OA
ATOM     45  OD1 ASP A   3     -10.711  20.424  28.369  0.00  0.00    -0.246 OA
ENDBRANCH  42  43
ENDBRANCH  21  42
ENDBRANCH  17  21
ENDBRANCH  16  19
BRANCH  16  46
ATOM     46  CB  THR A   4     -15.344  23.425  28.683  0.00  0.00    +0.137 C 
ATOM     47  CG2 THR A   4     -15.250  24.963  28.930  0.00  0.00    +0.034 C 
BRANCH  46  48
ATOM     48  OG1 THR A   4     -15.099  23.134  27.296  0.00  0.00    -0.382 OA
ATOM     49  HG1 THR A   4     -14.177  23.408  27.060  0.00  0.00    +0.210 HD
ENDBRANCH  46  48
ENDBRANCH  16  46
ENDBRANCH  12  16
ENDBRANCH  11  14
ENDBRANCH   7  11
ENDBRANCH   5   8
ENDBRANCH   1   5
BRANCH   2  50
ATOM     50  CA  ASP A   7     -13.520  17.738  35.296  0.00  0.00    +0.160 C 
BRANCH  50  51
ATOM     51  C   ASP A   7     -12.516  18.206  36.326  0.00  0.00    +0.241 C 
ATOM     52  O   ASP A   7     -12.903  18.797  37.342  0.00  0.00    -0.273 OA
ATOM     53  N   ASN A   8     -11.237  17.910  36.069  0.00  0.00    -0.297 N 
ATOM     54  H   ASN A   8     -11.008  17.481  35.150  0.00  0.00    +0.150 HD
BRANCH  53  55
ATOM     55  CA  ASN A   8     -10.146  18.154  37.004  0.00  0.00    +0.158 C 
BRANCH  55  56
ATOM     56  C   ASN A   8      -9.096  19.094  36.393  0.00  0.00    +0.241 C 
ATOM     57  N   THR A   9      -8.291  19.693  37.264  0.00  0.00    -0.295 N 
ATOM     58  H   THR A   9      -8.483  19.587  38.281  0.00  0.00    +0.150 HD
ATOM     59  O   ASN A   8      -9.018  19.263  35.162  0.00  0.00    -0.273 OA
BRANCH  57  60
ATOM     60  CA  THR A   9      -7.158  20.487  36.846  0.00  0.00    +0.176 C 
BRANCH  60  61
ATOM     61  C   THR A   9      -5.916  19.615  36.934  0.00  0.00    +0.243 C 
ATOM     62  O   THR A   9      -5.671  18.997  37.966  0.00  0.00    -0.273 OA
ATOM     63  N   VAL A  10      -5.161  19.526  35.845  0.00  0.00    -0.297 N 
ATOM     64  H   VAL A  10      -5.407  20.091  35.008  0.00  0.00    +0.150 HD
BRANCH  63  65
ATOM     65  CA  VAL A  10      -3.987  18.647  35.798  0.00  0.00    +0.149 C 
BRANCH  65  66
ATOM     66  C   VAL A  10      -2.752  19.419  35.372  0.00  0.00    +0.241 C 
ATOM     67  N   LEU A  11      -1.701  19.319  36.178  0.00  0.00    -0.298 N 
ATOM     68  H   LEU A  11      -1.740  18.669  36.989  0.00  0.00    +0.150 HD
ATOM     69  O   VAL A  10      -2.746  20.082  34.325  0.00  0.00    -0.273 OA
BRANCH  67  70
ATOM     70  CA  LEU A  11      -0.497  20.100  35.948  0.00  0.00    +0.137 C 
BRANCH  70  71
ATOM     71  C   LEU A  11       0.700  19.200  35.682  0.00  0.00    +0.227 C 
ATOM     72  O   LEU A  11       0.831  18.140  36.304  0.00  0.00    -0.286 OA
ENDBRANCH  70  71
BRANCH  70  73
ATOM     73  CB  LEU A  11      -0.259  21.039  37.132  0.00  0.00    +0.028 C 
BRANCH  73  74
ATOM     74  CG  LEU A  11      -0.771  22.490  37.064  0.00  0.00    +0.002 C 
ATOM     75  CD2 LEU A  11      -0.977  23.033  38.454  0.00  0.00    +0.000 C 
ATOM     76  CD1 LEU A  11      -2.019  22.730  36.208  0.00  0.00    +0.000 C 
ENDBRANCH  73  74
ENDBRANCH  70  73
ENDBRANCH  67  70
ENDBRANCH  65  66
BRANCH  65  77
ATOM     77  CB  VAL A  10      -4.155  17.425  34.850  0.00  0.00    +0.027 C 
ATOM     78  CG2 VAL A  10      -3.041  16.418  35.116  0.00  0.00    +0.002 C 
ATOM     79  CG1 VAL A  10      -5.514  16.758  35.038  0.00  0.00    +0.002 C 
ENDBRANCH  65  77
ENDBRANCH  63  65
ENDBRANCH  60  61
BRANCH  60  80
ATOM     80  CB  THR A   9      -7.047  21.734  37.727  0.00  0.00    +0.137 C 
ATOM     81  CG2 THR A   9      -5.700  22.527  37.478  0.00  0.00    +0.034 C 
BRANCH  80  82
ATOM     82  OG1 THR A   9      -8.188  22.563  37.464  0.00  0.00    -0.382 OA
ATOM     83  HG1 THR A   9      -9.015  22.063  37.680  0.00  0.00    +0.210 HD
ENDBRANCH  80  82
ENDBRANCH  60  80
ENDBRANCH  57  60
ENDBRANCH  55  56
BRANCH  55  84
ATOM     84  CB  ASN A   8      -9.470  16.832  37.409  0.00  0.00    +0.114 C 
BRANCH  84  85
ATOM     85  CG  ASN A   8     -10.465  15.766  37.866  0.00  0.00    +0.222 C 
ATOM     86  OD1 ASN A   8     -10.974  15.812  38.981  0.00  0.00    -0.275 OA
ATOM     87  ND2 ASN A   8     -10.728  14.795  37.004  0.00  0.00    -0.329 N 
ATOM     88 HD21 ASN A   8     -11.388  14.034  37.263  0.00  0.00    +0.145 HD
ATOM     89 HD22 ASN A   8     -10.275  14.794  36.068  0.00  0.00    +0.145 HD
ENDBRANCH  84  85
ENDBRANCH  55  84
ENDBRANCH  53  55
ENDBRANCH  50  51
BRANCH  50  90
ATOM     90  CB  ASP A   7     -14.113  16.413  35.784  0.00  0.00    +0.143 C 
BRANCH  90  91
ATOM     91  CG  ASP A   7     -15.052  15.757  34.763  0.00  0.00    +0.367 C 
ATOM     92  OD2 ASP A   7     -15.037  14.513  34.709  0.00  0.00    -0.246 OA
ATOM     93  OD1 ASP A   7     -15.803  16.456  34.032  0.00  0.00    -0.246 OA
ENDBRANCH  90  91
ENDBRANCH  50  90
ENDBRANCH   2  50
TORSDOF 39
REMARK  Name = ../refined-set-2016/2q64/2q64_pocket.pdb
REMARK  224 active torsions:
REMARK  status: ('A' for Active; 'I' for Inactive)
REMARK    1  A    between atoms: _1  and  _3
REMARK    2  A    between atoms: _3  and  _4
REMARK    3  A    between atoms: _3  and  _6
REMARK    4  A    between atoms: _6  and  _7
REMARK    5  A    between atoms: _7  and  _8
REMARK    6  A    between atoms: _8  and  _9
REMARK    7  A    between atoms: _18  and  _20
REMARK    8  A    between atoms: _20  and  _21
REMARK    9  A    between atoms: _20  and  _23
REMARK   10  A    between atoms: _23  and  _24
REMARK   11  A    between atoms: _27  and  _29
REMARK   12  A    between atoms: _29  and  _30
REMARK   13  A    between atoms: _29  and  _32
REMARK   14  A    between atoms: _32  and  _33
REMARK   15  A    between atoms: _36  and  _38
REMARK   16  A    between atoms: _38  and  _39
REMARK   17  A    between atoms: _38  and  _41
REMARK   18  A    between atoms: _41  and  _42
REMARK   19  A    between atoms: _45  and  _47
REMARK   20  A    between atoms: _47  and  _48
REMARK   21  A    between atoms: _47  and  _50
REMARK   22  A    between atoms: _50  and  _51
REMARK   23  A    between atoms: _54  and  _56
REMARK   24  A    between atoms: _56  and  _57
REMARK   25  A    between atoms: _59  and  _61
REMARK   26  A    between atoms: _61  and  _62
REMARK   27  A    between atoms: _65  and  _67
REMARK   28  A    between atoms: _67  and  _68
REMARK   29  A    between atoms: _67  and  _70
REMARK   30  A    between atoms: _70  and  _71
REMARK   31  A    between atoms: _74  and  _76
REMARK   32  A    between atoms: _76  and  _77
REMARK   33  A    between atoms: _76  and  _79
REMARK   34  A    between atoms: _79  and  _80
REMARK   35  A    between atoms: _85  and  _87
REMARK   36  A    between atoms: _87  and  _88
REMARK   37  A    between atoms: _87  and  _90
REMARK   38  A    between atoms: _90  and  _91
REMARK   39  A    between atoms: _94  and  _96
REMARK   40  A    between atoms: _96  and  _97
REMARK   41  A    between atoms: _96  and  _99
REMARK   42  A    between atoms: _102  and  _104
REMARK   43  A    between atoms: _104  and  _105
REMARK   44  A    between atoms: _104  and  _107
REMARK   45  A    between atoms: _107  and  _108
REMARK   46  A    between atoms: _108  and  _109
REMARK   47  A    between atoms: _109  and  _110
REMARK   48  A    between atoms: _110  and  _111
REMARK   49  A    between atoms: _115  and  _117
REMARK   50  A    between atoms: _117  and  _118
REMARK   51  A    between atoms: _117  and  _120
REMARK   52  A    between atoms: _120  and  _121
REMARK   53  A    between atoms: _121  and  _122
REMARK   54  A    between atoms: _124  and  _126
REMARK   55  A    between atoms: _126  and  _127
REMARK   56  A    between atoms: _126  and  _129
REMARK   57  A    between atoms: _129  and  _130
REMARK   58  A    between atoms: _133  and  _135
REMARK   59  A    between atoms: _135  and  _136
REMARK   60  A    between atoms: _138  and  _140
REMARK   61  A    between atoms: _140  and  _141
REMARK   62  A    between atoms: _145  and  _146
REMARK   63  A    between atoms: _145  and  _148
REMARK   64  A    between atoms: _148  and  _149
REMARK   65  A    between atoms: _152  and  _154
REMARK   66  A    between atoms: _154  and  _155
REMARK   67  A    between atoms: _157  and  _159
REMARK   68  A    between atoms: _159  and  _160
REMARK   69  A    between atoms: _162  and  _164
REMARK   70  A    between atoms: _164  and  _165
REMARK   71  A    between atoms: _164  and  _167
REMARK   72  A    between atoms: _167  and  _168
REMARK   73  A    between atoms: _171  and  _173
REMARK   74  A    between atoms: _173  and  _174
REMARK   75  A    between atoms: _173  and  _176
REMARK   76  A    between atoms: _179  and  _181
REMARK   77  A    between atoms: _181  and  _182
REMARK   78  A    between atoms: _181  and  _184
REMARK   79  A    between atoms: _184  and  _185
REMARK   80  A    between atoms: _189  and  _190
REMARK   81  A    between atoms: _195  and  _197
REMARK   82  A    between atoms: _197  and  _198
REMARK   83  A    between atoms: _197  and  _200
REMARK   84  A    between atoms: _200  and  _201
REMARK   85  A    between atoms: _205  and  _206
REMARK   86  A    between atoms: _211  and  _213
REMARK   87  A    between atoms: _213  and  _214
REMARK   88  A    between atoms: _213  and  _216
REMARK   89  A    between atoms: _219  and  _221
REMARK   90  A    between atoms: _221  and  _222
REMARK   91  A    between atoms: _221  and  _224
REMARK   92  A    between atoms: _224  and  _225
REMARK   93  A    between atoms: _230  and  _232
REMARK   94  A    between atoms: _232  and  _233
REMARK   95  A    between atoms: _232  and  _235
REMARK   96  A    between atoms: _235  and  _236
REMARK   97  A    between atoms: _239  and  _241
REMARK   98  A    between atoms: _241  and  _242
REMARK   99  A    between atoms: _244  and  _246
REMARK  100  A    between atoms: _246  and  _247
REMARK  101  A    between atoms: _246  and  _249
REMARK  102  A    between atoms: _249  and  _250
REMARK  103  A    between atoms: _250  and  _251
REMARK  104  A    between atoms: _251  and  _252
REMARK  105  A    between atoms: _261  and  _263
REMARK  106  A    between atoms: _263  and  _264
REMARK  107  A    between atoms: _263  and  _266
REMARK  108  A    between atoms: _266  and  _267
REMARK  109  A    between atoms: _272  and  _274
REMARK  110  A    between atoms: _274  and  _275
REMARK  111  A    between atoms: _274  and  _277
REMARK  112  A    between atoms: _277  and  _278
REMARK  113  A    between atoms: _278  and  _279
REMARK  114  A    between atoms: _279  and  _280
REMARK  115  A    between atoms: _289  and  _291
REMARK  116  A    between atoms: _291  and  _292
REMARK  117  A    between atoms: _291  and  _294
REMARK  118  A    between atoms: _294  and  _295
REMARK  119  A    between atoms: _298  and  _300
REMARK  120  A    between atoms: _300  and  _301
REMARK  121  A    between atoms: _300  and  _303
REMARK  122  A    between atoms: _303  and  _304
REMARK  123  A    between atoms: _307  and  _309
REMARK  124  A    between atoms: _309  and  _310
REMARK  125  A    between atoms: _309  and  _312
REMARK  126  A    between atoms: _312  and  _313
REMARK  127  A    between atoms: _316  and  _318
REMARK  128  A    between atoms: _318  and  _319
REMARK  129  A    between atoms: _318  and  _321
REMARK  130  A    between atoms: _321  and  _322
REMARK  131  A    between atoms: _325  and  _327
REMARK  132  A    between atoms: _327  and  _328
REMARK  133  A    between atoms: _330  and  _332
REMARK  134  A    between atoms: _332  and  _333
REMARK  135  A    between atoms: _336  and  _338
REMARK  136  A    between atoms: _338  and  _339
REMARK  137  A    between atoms: _338  and  _341
REMARK  138  A    between atoms: _341  and  _342
REMARK  139  A    between atoms: _345  and  _347
REMARK  140  A    between atoms: _347  and  _348
REMARK  141  A    between atoms: _347  and  _350
REMARK  142  A    between atoms: _350  and  _351
REMARK  143  A    between atoms: _356  and  _358
REMARK  144  A    between atoms: _358  and  _359
REMARK  145  A    between atoms: _358  and  _361
REMARK  146  A    between atoms: _361  and  _362
REMARK  147  A    between atoms: _365  and  _367
REMARK  148  A    between atoms: _367  and  _368
REMARK  149  A    between atoms: _367  and  _370
REMARK  150  A    between atoms: _373  and  _375
REMARK  151  A    between atoms: _375  and  _376
REMARK  152  A    between atoms: _375  and  _378
REMARK  153  A    between atoms: _378  and  _379
REMARK  154  A    between atoms: _382  and  _384
REMARK  155  A    between atoms: _384  and  _385
REMARK  156  A    between atoms: _384  and  _387
REMARK  157  A    between atoms: _387  and  _388
REMARK  158  A    between atoms: _388  and  _389
REMARK  159  A    between atoms: _389  and  _390
REMARK  160  A    between atoms: _390  and  _391
REMARK  161  A    between atoms: _395  and  _397
REMARK  162  A    between atoms: _397  and  _398
REMARK  163  A    between atoms: _397  and  _400
REMARK  164  A    between atoms: _400  and  _401
REMARK  165  A    between atoms: _401  and  _402
REMARK  166  A    between atoms: _404  and  _406
REMARK  167  A    between atoms: _406  and  _407
REMARK  168  A    between atoms: _406  and  _409
REMARK  169  A    between atoms: _409  and  _410
REMARK  170  A    between atoms: _413  and  _415
REMARK  171  A    between atoms: _415  and  _416
REMARK  172  A    between atoms: _418  and  _420
REMARK  173  A    between atoms: _420  and  _421
REMARK  174  A    between atoms: _423  and  _425
REMARK  175  A    between atoms: _425  and  _426
REMARK  176  A    between atoms: _425  and  _428
REMARK  177  A    between atoms: _428  and  _429
REMARK  178  A    between atoms: _432  and  _434
REMARK  179  A    between atoms: _434  and  _435
REMARK  180  A    between atoms: _437  and  _439
REMARK  181  A    between atoms: _439  and  _440
REMARK  182  A    between atoms: _442  and  _444
REMARK  183  A    between atoms: _444  and  _445
REMARK  184  A    between atoms: _444  and  _447
REMARK  185  A    between atoms: _447  and  _448
REMARK  186  A    between atoms: _454  and  _456
REMARK  187  A    between atoms: _456  and  _457
REMARK  188  A    between atoms: _456  and  _459
REMARK  189  A    between atoms: _459  and  _460
REMARK  190  A    between atoms: _463  and  _465
REMARK  191  A    between atoms: _465  and  _466
REMARK  192  A    between atoms: _465  and  _468
REMARK  193  A    between atoms: _471  and  _473
REMARK  194  A    between atoms: _473  and  _474
REMARK  195  A    between atoms: _473  and  _476
REMARK  196  A    between atoms: _476  and  _477
REMARK  197  A    between atoms: _480  and  _482
REMARK  198  A    between atoms: _482  and  _483
REMARK  199  A    between atoms: _482  and  _485
REMARK  200  A    between atoms: _485  and  _486
REMARK  201  A    between atoms: _490  and  _491
REMARK  202  A    between atoms: _496  and  _498
REMARK  203  A    between atoms: _498  and  _499
REMARK  204  A    between atoms: _498  and  _501
REMARK  205  A    between atoms: _504  and  _506
REMARK  206  A    between atoms: _506  and  _507
REMARK  207  A    between atoms: _506  and  _509
REMARK  208  A    between atoms: _509  and  _510
REMARK  209  A    between atoms: _515  and  _517
REMARK  210  A    between atoms: _517  and  _518
REMARK  211  A    between atoms: _517  and  _520
REMARK  212  A    between atoms: _520  and  _521
REMARK  213  A    between atoms: _524  and  _526
REMARK  214  A    between atoms: _526  and  _527
REMARK  215  A    between atoms: _526  and  _529
REMARK  216  A    between atoms: _529  and  _530
REMARK  217  A    between atoms: _533  and  _535
REMARK  218  A    between atoms: _535  and  _536
REMARK  219  A    between atoms: _538  and  _540
REMARK  220  A    between atoms: _540  and  _541
REMARK  221  A    between atoms: _540  and  _543
REMARK  222  A    between atoms: _543  and  _544
REMARK  223  A    between atoms: _544  and  _545
REMARK  224  A    between atoms: _545  and  _546
REMARK                            x       y       z     vdW  Elec       q    Type
REMARK                         _______ _______ _______ _____ _____    ______ ____
ROOT
ATOM      1  C   GLY A   5      -8.761   9.767  28.196  0.00  0.00    +0.243 C 
ATOM      2  O   GLY A   5      -9.075   8.583  28.273  0.00  0.00    -0.273 OA
ATOM      3  N   ILE A   6      -8.587  10.394  27.039  0.00  0.00    -0.297 N 
ATOM      4  H   ILE A   6      -8.504  11.431  27.024  0.00  0.00    +0.150 HD
ENDROOT
BRANCH   3   5
ATOM      5  CA  ILE A   6      -8.511   9.649  25.791  0.00  0.00    +0.149 C 
BRANCH   5   6
ATOM      6  C   ILE A   6      -7.124   8.972  25.774  0.00  0.00    +0.241 C 
ATOM      7  O   ILE A   6      -6.113   9.567  26.203  0.00  0.00    -0.273 OA
ATOM      8  N   GLY A   7      -7.082   7.710  25.361  0.00  0.00    -0.295 N 
ATOM      9  H   GLY A   7      -7.955   7.235  25.054  0.00  0.00    +0.150 HD
BRANCH   8  10
ATOM     10  CA  GLY A   7      -5.809   6.985  25.337  0.00  0.00    +0.176 C 
BRANCH  10  11
ATOM     11  C   GLY A   7      -5.500   6.094  26.534  0.00  0.00    +0.243 C 
ATOM     12  N   GLY A   8      -6.110   6.377  27.681  0.00  0.00    -0.295 N 
ATOM     13  H   GLY A   8      -6.752   7.194  27.728  0.00  0.00    +0.150 HD
ATOM     14  O   GLY A   7      -4.705   5.155  26.420  0.00  0.00    -0.273 OA
BRANCH  12  15
ATOM     15  CA  GLY A   8      -5.898   5.565  28.876  0.00  0.00    +0.176 C 
BRANCH  15  16
ATOM     16  C   GLY A   8      -5.837   6.365  30.161  0.00  0.00    +0.243 C 
ATOM     17  N   PHE A   9      -4.965   5.937  31.071  0.00  0.00    -0.297 N 
ATOM     18  H   PHE A   9      -4.331   5.147  30.834  0.00  0.00    +0.150 HD
ATOM     19  O   GLY A   8      -6.548   7.364  30.319  0.00  0.00    -0.273 OA
BRANCH  17  20
ATOM     20  CA  PHE A   9      -4.876   6.551  32.398  0.00  0.00    +0.153 C 
BRANCH  20  21
ATOM     21  C   PHE A   9      -3.463   6.996  32.758  0.00  0.00    +0.241 C 
ATOM     22  N   ILE A  10      -3.375   8.020  33.606  0.00  0.00    -0.298 N 
ATOM     23  H   ILE A  10      -4.238   8.536  33.870  0.00  0.00    +0.150 HD
ATOM     24  O   PHE A   9      -2.473   6.433  32.273  0.00  0.00    -0.273 OA
BRANCH  22  25
ATOM     25  CA  ILE A  10      -2.092   8.436  34.175  0.00  0.00    +0.137 C 
BRANCH  25  26
ATOM     26  C   ILE A  10      -2.155   8.502  35.710  0.00  0.00    +0.227 C 
ATOM     27  O   ILE A  10      -3.203   8.841  36.279  0.00  0.00    -0.286 OA
ENDBRANCH  25  26
BRANCH  25  28
ATOM     28  CB  ILE A  10      -1.557   9.772  33.579  0.00  0.00    +0.026 C 
ATOM     29  CG2 ILE A  10      -1.240   9.607  32.088  0.00  0.00    +0.002 C 
BRANCH  28  30
ATOM     30  CG1 ILE A  10      -2.503  10.951  33.873  0.00  0.00    +0.002 C 
ATOM     31  CD1 ILE A  10      -1.834  12.296  33.815  0.00  0.00    +0.000 C 
ENDBRANCH  28  30
ENDBRANCH  25  28
ENDBRANCH  22  25
ENDBRANCH  20  21
BRANCH  20  32
ATOM     32  CB  PHE A   9      -5.411   5.599  33.476  0.00  0.00    +0.055 C 
BRANCH  32  33
ATOM     33  CG  PHE A   9      -4.591   4.348  33.658  0.00  0.00    -0.020 A 
ATOM     34  CD2 PHE A   9      -3.481   4.336  34.502  0.00  0.00    -0.004 A 
ATOM     35  CE2 PHE A   9      -2.727   3.186  34.674  0.00  0.00    -0.000 A 
ATOM     36  CZ  PHE A   9      -3.081   2.021  34.008  0.00  0.00    -0.000 A 
ATOM     37  CE1 PHE A   9      -4.186   2.012  33.171  0.00  0.00    -0.000 A 
ATOM     38  CD1 PHE A   9      -4.937   3.175  32.998  0.00  0.00    -0.004 A 
ENDBRANCH  32  33
ENDBRANCH  20  32
ENDBRANCH  17  20
ENDBRANCH  15  16
ENDBRANCH  12  15
ENDBRANCH  10  11
ENDBRANCH   8  10
ENDBRANCH   5   6
BRANCH   5  39
ATOM     39  CB  ILE A   6      -8.819  10.566  24.554  0.00  0.00    +0.027 C 
ATOM     40  CG2 ILE A   6      -7.582  10.811  23.695  0.00  0.00    +0.002 C 
BRANCH  39  41
ATOM     41  CG1 ILE A   6      -9.999  10.004  23.743  0.00  0.00    +0.002 C 
ATOM     42  CD1 ILE A   6     -10.674  11.020  22.823  0.00  0.00    +0.000 C 
ENDBRANCH  39  41
ENDBRANCH   5  39
ENDBRANCH   3   5
BRANCH   1  43
ATOM     43  CA  GLY A   5      -8.565  10.594  29.449  0.00  0.00    +0.176 C 
BRANCH  43  46
ATOM     44  C   GLY A   4      -8.940   9.815  31.722  0.00  0.00    +0.243 C 
ATOM     45  O   GLY A   4      -9.738  10.730  31.966  0.00  0.00    -0.273 OA
ATOM     46  N   GLY A   5      -8.272   9.718  30.578  0.00  0.00    -0.295 N 
ATOM     47  H   GLY A   5      -7.524   9.002  30.485  0.00  0.00    +0.150 HD
BRANCH  44  48
ATOM     48  CA  GLY A   4      -8.664   8.727  32.737  0.00  0.00    +0.176 C 
BRANCH  48  50
ATOM     49  C   ILE A   3      -7.295   9.374  34.649  0.00  0.00    +0.241 C 
ATOM     50  N   GLY A   4      -8.496   9.203  34.108  0.00  0.00    -0.295 N 
ATOM     51  H   GLY A   4      -9.341   9.414  34.677  0.00  0.00    +0.150 HD
ATOM     52  O   ILE A   3      -6.242   9.161  34.046  0.00  0.00    -0.273 OA
BRANCH  49  53
ATOM     53  CA  ILE A   3      -7.286   9.860  36.092  0.00  0.00    +0.149 C 
BRANCH  53  56
ATOM     54  C   MET A   2      -6.626   8.561  38.028  0.00  0.00    +0.241 C 
ATOM     55  O   MET A   2      -7.759   8.670  38.506  0.00  0.00    -0.273 OA
ATOM     56  N   ILE A   3      -6.270   9.177  36.904  0.00  0.00    -0.297 N 
ATOM     57  H   ILE A   3      -5.275   9.175  36.601  0.00  0.00    +0.150 HD
BRANCH  54  58
ATOM     58  CA  MET A   2      -5.571   7.725  38.744  0.00  0.00    +0.149 C 
BRANCH  58  61
ATOM     59  C   LYS A   1      -4.573   8.617  40.795  0.00  0.00    +0.238 C 
ATOM     60  O   LYS A   1      -3.444   8.712  40.312  0.00  0.00    -0.274 OA
ATOM     61  N   MET A   2      -5.614   8.125  40.139  0.00  0.00    -0.297 N 
ATOM     62  H   MET A   2      -6.512   8.019  40.652  0.00  0.00    +0.150 HD
BRANCH  59  63
ATOM     63  CA  LYS A   1      -4.876   9.076  42.213  0.00  0.00    +0.145 C 
BRANCH  63  64
ATOM     64  N   LYS A   1      -3.676   9.093  43.059  0.00  0.00    -0.238 NA
ATOM     65  H   LYS A   1      -2.752   9.244  42.606  0.00  0.00    +0.142 HD
ENDBRANCH  63  64
BRANCH  63  66
ATOM     66  CB  LYS A   1      -5.575  10.446  42.156  0.00  0.00    +0.026 C 
BRANCH  66  67
ATOM     67  CG  LYS A   1      -6.857  10.555  42.981  0.00  0.00    -0.000 C 
BRANCH  67  68
ATOM     68  CD  LYS A   1      -7.835  11.570  42.377  0.00  0.00    -0.024 C 
BRANCH  68  69
ATOM     69  CE  LYS A   1      -9.088  10.910  41.817  0.00  0.00    -0.086 C 
BRANCH  69  70
ATOM     70  NZ  LYS A   1     -10.038  11.927  41.272  0.00  0.00    +0.380 N 
ATOM     71  HZ1 LYS A   1     -10.318  12.580  42.031  0.00  0.00    -0.089 HD
ATOM     72  HZ2 LYS A   1     -10.881  11.447  40.898  0.00  0.00    -0.089 HD
ATOM     73  HZ3 LYS A   1      -9.574  12.459  40.509  0.00  0.00    -0.089 HD
ENDBRANCH  69  70
ENDBRANCH  68  69
ENDBRANCH  67  68
ENDBRANCH  66  67
ENDBRANCH  63  66
ENDBRANCH  59  63
ENDBRANCH  58  61
BRANCH  58  74
ATOM     74  CB  MET A   2      -5.922   6.240  38.627  0.00  0.00    +0.041 C 
BRANCH  74  75
ATOM     75  CG  MET A   2      -5.210   5.480  37.517  0.00  0.00    +0.060 C 
BRANCH  75  76
ATOM     76  SD  MET A   2      -3.676   4.654  38.010  0.00  0.00    -0.139 S 
ATOM     77  CE  MET A   2      -4.218   3.526  39.303  0.00  0.00    +0.069 C 
ENDBRANCH  75  76
ENDBRANCH  74  75
ENDBRANCH  58  74
ENDBRANCH  54  58
ENDBRANCH  53  56
BRANCH  53  78
ATOM     78  CB  ILE A   3      -7.174  11.413  36.152  0.00  0.00    +0.027 C 
ATOM     79  CG2 ILE A   3      -7.441  11.914  37.584  0.00  0.00    +0.002 C 
BRANCH  78  80
ATOM     80  CG1 ILE A   3      -5.819  11.880  35.601  0.00  0.00    +0.002 C 
ATOM     81  CD1 ILE A   3      -5.697  13.344  35.448  0.00  0.00    +0.000 C 
ENDBRANCH  78  80
ENDBRANCH  53  78
ENDBRANCH  49  53
ENDBRANCH  48  50
ENDBRANCH  44  48
ENDBRANCH  43  46
ENDBRANCH   1  43
TORSDOF 36
REMARK  Name = ../refined-set-2016/2q64/2q64_pocket.pdb
REMARK  224 active torsions:
REMARK  status: ('A' for Active; 'I' for Inactive)
REMARK    1  A    between atoms: _1  and  _3
REMARK    2  A    between atoms: _3  and  _4
REMARK    3  A    between atoms: _3  and  _6
REMARK    4  A    between atoms: _6  and  _7
REMARK    5  A    between atoms: _7  and  _8
REMARK    6  A    between atoms: _8  and  _9
REMARK    7  A    between atoms: _18  and  _20
REMARK    8  A    between atoms: _20  and  _21
REMARK    9  A    between atoms: _20  and  _23
REMARK   10  A    between atoms: _23  and  _24
REMARK   11  A    between atoms: _27  and  _29
REMARK   12  A    between atoms: _29  and  _30
REMARK   13  A    between atoms: _29  and  _32
REMARK   14  A    between atoms: _32  and  _33
REMARK   15  A    between atoms: _36  and  _38
REMARK   16  A    between atoms: _38  and  _39
REMARK   17  A    between atoms: _38  and  _41
REMARK   18  A    between atoms: _41  and  _42
REMARK   19  A    between atoms: _45  and  _47
REMARK   20  A    between atoms: _47  and  _48
REMARK   21  A    between atoms: _47  and  _50
REMARK   22  A    between atoms: _50  and  _51
REMARK   23  A    between atoms: _54  and  _56
REMARK   24  A    between atoms: _56  and  _57
REMARK   25  A    between atoms: _59  and  _61
REMARK   26  A    between atoms: _61  and  _62
REMARK   27  A    between atoms: _65  and  _67
REMARK   28  A    between atoms: _67  and  _68
REMARK   29  A    between atoms: _67  and  _70
REMARK   30  A    between atoms: _70  and  _71
REMARK   31  A    between atoms: _74  and  _76
REMARK   32  A    between atoms: _76  and  _77
REMARK   33  A    between atoms: _76  and  _79
REMARK   34  A    between atoms: _79  and  _80
REMARK   35  A    between atoms: _85  and  _87
REMARK   36  A    between atoms: _87  and  _88
REMARK   37  A    between atoms: _87  and  _90
REMARK   38  A    between atoms: _90  and  _91
REMARK   39  A    between atoms: _94  and  _96
REMARK   40  A    between atoms: _96  and  _97
REMARK   41  A    between atoms: _96  and  _99
REMARK   42  A    between atoms: _102  and  _104
REMARK   43  A    between atoms: _104  and  _105
REMARK   44  A    between atoms: _104  and  _107
REMARK   45  A    between atoms: _107  and  _108
REMARK   46  A    between atoms: _108  and  _109
REMARK   47  A    between atoms: _109  and  _110
REMARK   48  A    between atoms: _110  and  _111
REMARK   49  A    between atoms: _115  and  _117
REMARK   50  A    between atoms: _117  and  _118
REMARK   51  A    between atoms: _117  and  _120
REMARK   52  A    between atoms: _120  and  _121
REMARK   53  A    between atoms: _121  and  _122
REMARK   54  A    between atoms: _124  and  _126
REMARK   55  A    between atoms: _126  and  _127
REMARK   56  A    between atoms: _126  and  _129
REMARK   57  A    between atoms: _129  and  _130
REMARK   58  A    between atoms: _133  and  _135
REMARK   59  A    between atoms: _135  and  _136
REMARK   60  A    between atoms: _138  and  _140
REMARK   61  A    between atoms: _140  and  _141
REMARK   62  A    between atoms: _145  and  _146
REMARK   63  A    between atoms: _145  and  _148
REMARK   64  A    between atoms: _148  and  _149
REMARK   65  A    between atoms: _152  and  _154
REMARK   66  A    between atoms: _154  and  _155
REMARK   67  A    between atoms: _157  and  _159
REMARK   68  A    between atoms: _159  and  _160
REMARK   69  A    between atoms: _162  and  _164
REMARK   70  A    between atoms: _164  and  _165
REMARK   71  A    between atoms: _164  and  _167
REMARK   72  A    between atoms: _167  and  _168
REMARK   73  A    between atoms: _171  and  _173
REMARK   74  A    between atoms: _173  and  _174
REMARK   75  A    between atoms: _173  and  _176
REMARK   76  A    between atoms: _179  and  _181
REMARK   77  A    between atoms: _181  and  _182
REMARK   78  A    between atoms: _181  and  _184
REMARK   79  A    between atoms: _184  and  _185
REMARK   80  A    between atoms: _189  and  _190
REMARK   81  A    between atoms: _195  and  _197
REMARK   82  A    between atoms: _197  and  _198
REMARK   83  A    between atoms: _197  and  _200
REMARK   84  A    between atoms: _200  and  _201
REMARK   85  A    between atoms: _205  and  _206
REMARK   86  A    between atoms: _211  and  _213
REMARK   87  A    between atoms: _213  and  _214
REMARK   88  A    between atoms: _213  and  _216
REMARK   89  A    between atoms: _219  and  _221
REMARK   90  A    between atoms: _221  and  _222
REMARK   91  A    between atoms: _221  and  _224
REMARK   92  A    between atoms: _224  and  _225
REMARK   93  A    between atoms: _230  and  _232
REMARK   94  A    between atoms: _232  and  _233
REMARK   95  A    between atoms: _232  and  _235
REMARK   96  A    between atoms: _235  and  _236
REMARK   97  A    between atoms: _239  and  _241
REMARK   98  A    between atoms: _241  and  _242
REMARK   99  A    between atoms: _244  and  _246
REMARK  100  A    between atoms: _246  and  _247
REMARK  101  A    between atoms: _246  and  _249
REMARK  102  A    between atoms: _249  and  _250
REMARK  103  A    between atoms: _250  and  _251
REMARK  104  A    between atoms: _251  and  _252
REMARK  105  A    between atoms: _261  and  _263
REMARK  106  A    between atoms: _263  and  _264
REMARK  107  A    between atoms: _263  and  _266
REMARK  108  A    between atoms: _266  and  _267
REMARK  109  A    between atoms: _272  and  _274
REMARK  110  A    between atoms: _274  and  _275
REMARK  111  A    between atoms: _274  and  _277
REMARK  112  A    between atoms: _277  and  _278
REMARK  113  A    between atoms: _278  and  _279
REMARK  114  A    between atoms: _279  and  _280
REMARK  115  A    between atoms: _289  and  _291
REMARK  116  A    between atoms: _291  and  _292
REMARK  117  A    between atoms: _291  and  _294
REMARK  118  A    between atoms: _294  and  _295
REMARK  119  A    between atoms: _298  and  _300
REMARK  120  A    between atoms: _300  and  _301
REMARK  121  A    between atoms: _300  and  _303
REMARK  122  A    between atoms: _303  and  _304
REMARK  123  A    between atoms: _307  and  _309
REMARK  124  A    between atoms: _309  and  _310
REMARK  125  A    between atoms: _309  and  _312
REMARK  126  A    between atoms: _312  and  _313
REMARK  127  A    between atoms: _316  and  _318
REMARK  128  A    between atoms: _318  and  _319
REMARK  129  A    between atoms: _318  and  _321
REMARK  130  A    between atoms: _321  and  _322
REMARK  131  A    between atoms: _325  and  _327
REMARK  132  A    between atoms: _327  and  _328
REMARK  133  A    between atoms: _330  and  _332
REMARK  134  A    between atoms: _332  and  _333
REMARK  135  A    between atoms: _336  and  _338
REMARK  136  A    between atoms: _338  and  _339
REMARK  137  A    between atoms: _338  and  _341
REMARK  138  A    between atoms: _341  and  _342
REMARK  139  A    between atoms: _345  and  _347
REMARK  140  A    between atoms: _347  and  _348
REMARK  141  A    between atoms: _347  and  _350
REMARK  142  A    between atoms: _350  and  _351
REMARK  143  A    between atoms: _356  and  _358
REMARK  144  A    between atoms: _358  and  _359
REMARK  145  A    between atoms: _358  and  _361
REMARK  146  A    between atoms: _361  and  _362
REMARK  147  A    between atoms: _365  and  _367
REMARK  148  A    between atoms: _367  and  _368
REMARK  149  A    between atoms: _367  and  _370
REMARK  150  A    between atoms: _373  and  _375
REMARK  151  A    between atoms: _375  and  _376
REMARK  152  A    between atoms: _375  and  _378
REMARK  153  A    between atoms: _378  and  _379
REMARK  154  A    between atoms: _382  and  _384
REMARK  155  A    between atoms: _384  and  _385
REMARK  156  A    between atoms: _384  and  _387
REMARK  157  A    between atoms: _387  and  _388
REMARK  158  A    between atoms: _388  and  _389
REMARK  159  A    between atoms: _389  and  _390
REMARK  160  A    between atoms: _390  and  _391
REMARK  161  A    between atoms: _395  and  _397
REMARK  162  A    between atoms: _397  and  _398
REMARK  163  A    between atoms: _397  and  _400
REMARK  164  A    between atoms: _400  and  _401
REMARK  165  A    between atoms: _401  and  _402
REMARK  166  A    between atoms: _404  and  _406
REMARK  167  A    between atoms: _406  and  _407
REMARK  168  A    between atoms: _406  and  _409
REMARK  169  A    between atoms: _409  and  _410
REMARK  170  A    between atoms: _413  and  _415
REMARK  171  A    between atoms: _415  and  _416
REMARK  172  A    between atoms: _418  and  _420
REMARK  173  A    between atoms: _420  and  _421
REMARK  174  A    between atoms: _423  and  _425
REMARK  175  A    between atoms: _425  and  _426
REMARK  176  A    between atoms: _425  and  _428
REMARK  177  A    between atoms: _428  and  _429
REMARK  178  A    between atoms: _432  and  _434
REMARK  179  A    between atoms: _434  and  _435
REMARK  180  A    between atoms: _437  and  _439
REMARK  181  A    between atoms: _439  and  _440
REMARK  182  A    between atoms: _442  and  _444
REMARK  183  A    between atoms: _444  and  _445
REMARK  184  A    between atoms: _444  and  _447
REMARK  185  A    between atoms: _447  and  _448
REMARK  186  A    between atoms: _454  and  _456
REMARK  187  A    between atoms: _456  and  _457
REMARK  188  A    between atoms: _456  and  _459
REMARK  189  A    between atoms: _459  and  _460
REMARK  190  A    between atoms: _463  and  _465
REMARK  191  A    between atoms: _465  and  _466
REMARK  192  A    between atoms: _465  and  _468
REMARK  193  A    between atoms: _471  and  _473
REMARK  194  A    between atoms: _473  and  _474
REMARK  195  A    between atoms: _473  and  _476
REMARK  196  A    between atoms: _476  and  _477
REMARK  197  A    between atoms: _480  and  _482
REMARK  198  A    between atoms: _482  and  _483
REMARK  199  A    between atoms: _482  and  _485
REMARK  200  A    between atoms: _485  and  _486
REMARK  201  A    between atoms: _490  and  _491
REMARK  202  A    between atoms: _496  and  _498
REMARK  203  A    between atoms: _498  and  _499
REMARK  204  A    between atoms: _498  and  _501
REMARK  205  A    between atoms: _504  and  _506
REMARK  206  A    between atoms: _506  and  _507
REMARK  207  A    between atoms: _506  and  _509
REMARK  208  A    between atoms: _509  and  _510
REMARK  209  A    between atoms: _515  and  _517
REMARK  210  A    between atoms: _517  and  _518
REMARK  211  A    between atoms: _517  and  _520
REMARK  212  A    between atoms: _520  and  _521
REMARK  213  A    between atoms: _524  and  _526
REMARK  214  A    between atoms: _526  and  _527
REMARK  215  A    between atoms: _526  and  _529
REMARK  216  A    between atoms: _529  and  _530
REMARK  217  A    between atoms: _533  and  _535
REMARK  218  A    between atoms: _535  and  _536
REMARK  219  A    between atoms: _538  and  _540
REMARK  220  A    between atoms: _540  and  _541
REMARK  221  A    between atoms: _540  and  _543
REMARK  222  A    between atoms: _543  and  _544
REMARK  223  A    between atoms: _544  and  _545
REMARK  224  A    between atoms: _545  and  _546
REMARK                            x       y       z     vdW  Elec       q    Type
REMARK                         _______ _______ _______ _____ _____    ______ ____
ROOT
ATOM      1  CA  VAL A   1      -1.172  11.747  39.443  0.00  0.00    +0.133 C 
ENDROOT
BRANCH   1   2
ATOM      2  CB  VAL A   1      -2.361  12.626  38.998  0.00  0.00    +0.023 C 
ATOM      3  CG2 VAL A   1      -3.677  12.089  39.571  0.00  0.00    +0.002 C 
ATOM      4  CG1 VAL A   1      -2.417  12.736  37.464  0.00  0.00    +0.002 C 
ENDBRANCH   1   2
BRANCH   1   5
ATOM      5  N   VAL A   1      -1.355  10.346  39.023  0.00  0.00    -0.239 NA
ATOM      6  H   VAL A   1      -2.151   9.810  39.423  0.00  0.00    +0.142 HD
ENDBRANCH   1   5
BRANCH   1   7
ATOM      7  C   VAL A   1      -0.994  11.909  40.967  0.00  0.00    +0.224 C 
ATOM      8  O   VAL A   1      -1.350  11.020  41.746  0.00  0.00    -0.287 OA
ENDBRANCH   1   7
TORSDOF 3
REMARK  Name = ../refined-set-2016/2q64/2q64_pocket.pdb
REMARK  224 active torsions:
REMARK  status: ('A' for Active; 'I' for Inactive)
REMARK    1  A    between atoms: _1  and  _3
REMARK    2  A    between atoms: _3  and  _4
REMARK    3  A    between atoms: _3  and  _6
REMARK    4  A    between atoms: _6  and  _7
REMARK    5  A    between atoms: _7  and  _8
REMARK    6  A    between atoms: _8  and  _9
REMARK    7  A    between atoms: _18  and  _20
REMARK    8  A    between atoms: _20  and  _21
REMARK    9  A    between atoms: _20  and  _23
REMARK   10  A    between atoms: _23  and  _24
REMARK   11  A    between atoms: _27  and  _29
REMARK   12  A    between atoms: _29  and  _30
REMARK   13  A    between atoms: _29  and  _32
REMARK   14  A    between atoms: _32  and  _33
REMARK   15  A    between atoms: _36  and  _38
REMARK   16  A    between atoms: _38  and  _39
REMARK   17  A    between atoms: _38  and  _41
REMARK   18  A    between atoms: _41  and  _42
REMARK   19  A    between atoms: _45  and  _47
REMARK   20  A    between atoms: _47  and  _48
REMARK   21  A    between atoms: _47  and  _50
REMARK   22  A    between atoms: _50  and  _51
REMARK   23  A    between atoms: _54  and  _56
REMARK   24  A    between atoms: _56  and  _57
REMARK   25  A    between atoms: _59  and  _61
REMARK   26  A    between atoms: _61  and  _62
REMARK   27  A    between atoms: _65  and  _67
REMARK   28  A    between atoms: _67  and  _68
REMARK   29  A    between atoms: _67  and  _70
REMARK   30  A    between atoms: _70  and  _71
REMARK   31  A    between atoms: _74  and  _76
REMARK   32  A    between atoms: _76  and  _77
REMARK   33  A    between atoms: _76  and  _79
REMARK   34  A    between atoms: _79  and  _80
REMARK   35  A    between atoms: _85  and  _87
REMARK   36  A    between atoms: _87  and  _88
REMARK   37  A    between atoms: _87  and  _90
REMARK   38  A    between atoms: _90  and  _91
REMARK   39  A    between atoms: _94  and  _96
REMARK   40  A    between atoms: _96  and  _97
REMARK   41  A    between atoms: _96  and  _99
REMARK   42  A    between atoms: _102  and  _104
REMARK   43  A    between atoms: _104  and  _105
REMARK   44  A    between atoms: _104  and  _107
REMARK   45  A    between atoms: _107  and  _108
REMARK   46  A    between atoms: _108  and  _109
REMARK   47  A    between atoms: _109  and  _110
REMARK   48  A    between atoms: _110  and  _111
REMARK   49  A    between atoms: _115  and  _117
REMARK   50  A    between atoms: _117  and  _118
REMARK   51  A    between atoms: _117  and  _120
REMARK   52  A    between atoms: _120  and  _121
REMARK   53  A    between atoms: _121  and  _122
REMARK   54  A    between atoms: _124  and  _126
REMARK   55  A    between atoms: _126  and  _127
REMARK   56  A    between atoms: _126  and  _129
REMARK   57  A    between atoms: _129  and  _130
REMARK   58  A    between atoms: _133  and  _135
REMARK   59  A    between atoms: _135  and  _136
REMARK   60  A    between atoms: _138  and  _140
REMARK   61  A    between atoms: _140  and  _141
REMARK   62  A    between atoms: _145  and  _146
REMARK   63  A    between atoms: _145  and  _148
REMARK   64  A    between atoms: _148  and  _149
REMARK   65  A    between atoms: _152  and  _154
REMARK   66  A    between atoms: _154  and  _155
REMARK   67  A    between atoms: _157  and  _159
REMARK   68  A    between atoms: _159  and  _160
REMARK   69  A    between atoms: _162  and  _164
REMARK   70  A    between atoms: _164  and  _165
REMARK   71  A    between atoms: _164  and  _167
REMARK   72  A    between atoms: _167  and  _168
REMARK   73  A    between atoms: _171  and  _173
REMARK   74  A    between atoms: _173  and  _174
REMARK   75  A    between atoms: _173  and  _176
REMARK   76  A    between atoms: _179  and  _181
REMARK   77  A    between atoms: _181  and  _182
REMARK   78  A    between atoms: _181  and  _184
REMARK   79  A    between atoms: _184  and  _185
REMARK   80  A    between atoms: _189  and  _190
REMARK   81  A    between atoms: _195  and  _197
REMARK   82  A    between atoms: _197  and  _198
REMARK   83  A    between atoms: _197  and  _200
REMARK   84  A    between atoms: _200  and  _201
REMARK   85  A    between atoms: _205  and  _206
REMARK   86  A    between atoms: _211  and  _213
REMARK   87  A    between atoms: _213  and  _214
REMARK   88  A    between atoms: _213  and  _216
REMARK   89  A    between atoms: _219  and  _221
REMARK   90  A    between atoms: _221  and  _222
REMARK   91  A    between atoms: _221  and  _224
REMARK   92  A    between atoms: _224  and  _225
REMARK   93  A    between atoms: _230  and  _232
REMARK   94  A    between atoms: _232  and  _233
REMARK   95  A    between atoms: _232  and  _235
REMARK   96  A    between atoms: _235  and  _236
REMARK   97  A    between atoms: _239  and  _241
REMARK   98  A    between atoms: _241  and  _242
REMARK   99  A    between atoms: _244  and  _246
REMARK  100  A    between atoms: _246  and  _247
REMARK  101  A    between atoms: _246  and  _249
REMARK  102  A    between atoms: _249  and  _250
REMARK  103  A    between atoms: _250  and  _251
REMARK  104  A    between atoms: _251  and  _252
REMARK  105  A    between atoms: _261  and  _263
REMARK  106  A    between atoms: _263  and  _264
REMARK  107  A    between atoms: _263  and  _266
REMARK  108  A    between atoms: _266  and  _267
REMARK  109  A    between atoms: _272  and  _274
REMARK  110  A    between atoms: _274  and  _275
REMARK  111  A    between atoms: _274  and  _277
REMARK  112  A    between atoms: _277  and  _278
REMARK  113  A    between atoms: _278  and  _279
REMARK  114  A    between atoms: _279  and  _280
REMARK  115  A    between atoms: _289  and  _291
REMARK  116  A    between atoms: _291  and  _292
REMARK  117  A    between atoms: _291  and  _294
REMARK  118  A    between atoms: _294  and  _295
REMARK  119  A    between atoms: _298  and  _300
REMARK  120  A    between atoms: _300  and  _301
REMARK  121  A    between atoms: _300  and  _303
REMARK  122  A    between atoms: _303  and  _304
REMARK  123  A    between atoms: _307  and  _309
REMARK  124  A    between atoms: _309  and  _310
REMARK  125  A    between atoms: _309  and  _312
REMARK  126  A    between atoms: _312  and  _313
REMARK  127  A    between atoms: _316  and  _318
REMARK  128  A    between atoms: _318  and  _319
REMARK  129  A    between atoms: _318  and  _321
REMARK  130  A    between atoms: _321  and  _322
REMARK  131  A    between atoms: _325  and  _327
REMARK  132  A    between atoms: _327  and  _328
REMARK  133  A    between atoms: _330  and  _332
REMARK  134  A    between atoms: _332  and  _333
REMARK  135  A    between atoms: _336  and  _338
REMARK  136  A    between atoms: _338  and  _339
REMARK  137  A    between atoms: _338  and  _341
REMARK  138  A    between atoms: _341  and  _342
REMARK  139  A    between atoms: _345  and  _347
REMARK  140  A    between atoms: _347  and  _348
REMARK  141  A    between atoms: _347  and  _350
REMARK  142  A    between atoms: _350  and  _351
REMARK  143  A    between atoms: _356  and  _358
REMARK  144  A    between atoms: _358  and  _359
REMARK  145  A    between atoms: _358  and  _361
REMARK  146  A    between atoms: _361  and  _362
REMARK  147  A    between atoms: _365  and  _367
REMARK  148  A    between atoms: _367  and  _368
REMARK  149  A    between atoms: _367  and  _370
REMARK  150  A    between atoms: _373  and  _375
REMARK  151  A    between atoms: _375  and  _376
REMARK  152  A    between atoms: _375  and  _378
REMARK  153  A    between atoms: _378  and  _379
REMARK  154  A    between atoms: _382  and  _384
REMARK  155  A    between atoms: _384  and  _385
REMARK  156  A    between atoms: _384  and  _387
REMARK  157  A    between atoms: _387  and  _388
REMARK  158  A    between atoms: _388  and  _389
REMARK  159  A    between atoms: _389  and  _390
REMARK  160  A    between atoms: _390  and  _391
REMARK  161  A    between atoms: _395  and  _397
REMARK  162  A    between atoms: _397  and  _398
REMARK  163  A    between atoms: _397  and  _400
REMARK  164  A    between atoms: _400  and  _401
REMARK  165  A    between atoms: _401  and  _402
REMARK  166  A    between atoms: _404  and  _406
REMARK  167  A    between atoms: _406  and  _407
REMARK  168  A    between atoms: _406  and  _409
REMARK  169  A    between atoms: _409  and  _410
REMARK  170  A    between atoms: _413  and  _415
REMARK  171  A    between atoms: _415  and  _416
REMARK  172  A    between atoms: _418  and  _420
REMARK  173  A    between atoms: _420  and  _421
REMARK  174  A    between atoms: _423  and  _425
REMARK  175  A    between atoms: _425  and  _426
REMARK  176  A    between atoms: _425  and  _428
REMARK  177  A    between atoms: _428  and  _429
REMARK  178  A    between atoms: _432  and  _434
REMARK  179  A    between atoms: _434  and  _435
REMARK  180  A    between atoms: _437  and  _439
REMARK  181  A    between atoms: _439  and  _440
REMARK  182  A    between atoms: _442  and  _444
REMARK  183  A    between atoms: _444  and  _445
REMARK  184  A    between atoms: _444  and  _447
REMARK  185  A    between atoms: _447  and  _448
REMARK  186  A    between atoms: _454  and  _456
REMARK  187  A    between atoms: _456  and  _457
REMARK  188  A    between atoms: _456  and  _459
REMARK  189  A    between atoms: _459  and  _460
REMARK  190  A    between atoms: _463  and  _465
REMARK  191  A    between atoms: _465  and  _466
REMARK  192  A    between atoms: _465  and  _468
REMARK  193  A    between atoms: _471  and  _473
REMARK  194  A    between atoms: _473  and  _474
REMARK  195  A    between atoms: _473  and  _476
REMARK  196  A    between atoms: _476  and  _477
REMARK  197  A    between atoms: _480  and  _482
REMARK  198  A    between atoms: _482  and  _483
REMARK  199  A    between atoms: _482  and  _485
REMARK  200  A    between atoms: _485  and  _486
REMARK  201  A    between atoms: _490  and  _491
REMARK  202  A    between atoms: _496  and  _498
REMARK  203  A    between atoms: _498  and  _499
REMARK  204  A    between atoms: _498  and  _501
REMARK  205  A    between atoms: _504  and  _506
REMARK  206  A    between atoms: _506  and  _507
REMARK  207  A    between atoms: _506  and  _509
REMARK  208  A    between atoms: _509  and  _510
REMARK  209  A    between atoms: _515  and  _517
REMARK  210  A    between atoms: _517  and  _518
REMARK  211  A    between atoms: _517  and  _520
REMARK  212  A    between atoms: _520  and  _521
REMARK  213  A    between atoms: _524  and  _526
REMARK  214  A    between atoms: _526  and  _527
REMARK  215  A    between atoms: _526  and  _529
REMARK  216  A    between atoms: _529  and  _530
REMARK  217  A    between atoms: _533  and  _535
REMARK  218  A    between atoms: _535  and  _536
REMARK  219  A    between atoms: _538  and  _540
REMARK  220  A    between atoms: _540  and  _541
REMARK  221  A    between atoms: _540  and  _543
REMARK  222  A    between atoms: _543  and  _544
REMARK  223  A    between atoms: _544  and  _545
REMARK  224  A    between atoms: _545  and  _546
REMARK                            x       y       z     vdW  Elec       q    Type
REMARK                         _______ _______ _______ _____ _____    ______ ____
ROOT
ATOM      1  CA  LEU A   1      -3.487  17.207  40.176  0.00  0.00    +0.133 C 
ENDROOT
BRANCH   1   2
ATOM      2  N   LEU A   1      -4.147  18.508  40.417  0.00  0.00    -0.239 NA
ATOM      3  H   LEU A   1      -4.551  19.012  39.602  0.00  0.00    +0.142 HD
ENDBRANCH   1   2
BRANCH   1   4
ATOM      4  C   LEU A   1      -2.146  17.387  39.427  0.00  0.00    +0.224 C 
ATOM      5  O   LEU A   1      -2.101  18.101  38.419  0.00  0.00    -0.287 OA
ENDBRANCH   1   4
BRANCH   1   6
ATOM      6  CB  LEU A   1      -4.417  16.295  39.367  0.00  0.00    +0.025 C 
BRANCH   6   7
ATOM      7  CG  LEU A   1      -5.416  15.313  39.991  0.00  0.00    +0.002 C 
ATOM      8  CD2 LEU A   1      -5.950  15.701  41.373  0.00  0.00    +0.000 C 
ATOM      9  CD1 LEU A   1      -6.550  15.085  39.016  0.00  0.00    +0.000 C 
ENDBRANCH   6   7
ENDBRANCH   1   6
TORSDOF 4
REMARK  Name = ../refined-set-2016/2q64/2q64_pocket.pdb
REMARK  224 active torsions:
REMARK  status: ('A' for Active; 'I' for Inactive)
REMARK    1  A    between atoms: _1  and  _3
REMARK    2  A    between atoms: _3  and  _4
REMARK    3  A    between atoms: _3  and  _6
REMARK    4  A    between atoms: _6  and  _7
REMARK    5  A    between atoms: _7  and  _8
REMARK    6  A    between atoms: _8  and  _9
REMARK    7  A    between atoms: _18  and  _20
REMARK    8  A    between atoms: _20  and  _21
REMARK    9  A    between atoms: _20  and  _23
REMARK   10  A    between atoms: _23  and  _24
REMARK   11  A    between atoms: _27  and  _29
REMARK   12  A    between atoms: _29  and  _30
REMARK   13  A    between atoms: _29  and  _32
REMARK   14  A    between atoms: _32  and  _33
REMARK   15  A    between atoms: _36  and  _38
REMARK   16  A    between atoms: _38  and  _39
REMARK   17  A    between atoms: _38  and  _41
REMARK   18  A    between atoms: _41  and  _42
REMARK   19  A    between atoms: _45  and  _47
REMARK   20  A    between atoms: _47  and  _48
REMARK   21  A    between atoms: _47  and  _50
REMARK   22  A    between atoms: _50  and  _51
REMARK   23  A    between atoms: _54  and  _56
REMARK   24  A    between atoms: _56  and  _57
REMARK   25  A    between atoms: _59  and  _61
REMARK   26  A    between atoms: _61  and  _62
REMARK   27  A    between atoms: _65  and  _67
REMARK   28  A    between atoms: _67  and  _68
REMARK   29  A    between atoms: _67  and  _70
REMARK   30  A    between atoms: _70  and  _71
REMARK   31  A    between atoms: _74  and  _76
REMARK   32  A    between atoms: _76  and  _77
REMARK   33  A    between atoms: _76  and  _79
REMARK   34  A    between atoms: _79  and  _80
REMARK   35  A    between atoms: _85  and  _87
REMARK   36  A    between atoms: _87  and  _88
REMARK   37  A    between atoms: _87  and  _90
REMARK   38  A    between atoms: _90  and  _91
REMARK   39  A    between atoms: _94  and  _96
REMARK   40  A    between atoms: _96  and  _97
REMARK   41  A    between atoms: _96  and  _99
REMARK   42  A    between atoms: _102  and  _104
REMARK   43  A    between atoms: _104  and  _105
REMARK   44  A    between atoms: _104  and  _107
REMARK   45  A    between atoms: _107  and  _108
REMARK   46  A    between atoms: _108  and  _109
REMARK   47  A    between atoms: _109  and  _110
REMARK   48  A    between atoms: _110  and  _111
REMARK   49  A    between atoms: _115  and  _117
REMARK   50  A    between atoms: _117  and  _118
REMARK   51  A    between atoms: _117  and  _120
REMARK   52  A    between atoms: _120  and  _121
REMARK   53  A    between atoms: _121  and  _122
REMARK   54  A    between atoms: _124  and  _126
REMARK   55  A    between atoms: _126  and  _127
REMARK   56  A    between atoms: _126  and  _129
REMARK   57  A    between atoms: _129  and  _130
REMARK   58  A    between atoms: _133  and  _135
REMARK   59  A    between atoms: _135  and  _136
REMARK   60  A    between atoms: _138  and  _140
REMARK   61  A    between atoms: _140  and  _141
REMARK   62  A    between atoms: _145  and  _146
REMARK   63  A    between atoms: _145  and  _148
REMARK   64  A    between atoms: _148  and  _149
REMARK   65  A    between atoms: _152  and  _154
REMARK   66  A    between atoms: _154  and  _155
REMARK   67  A    between atoms: _157  and  _159
REMARK   68  A    between atoms: _159  and  _160
REMARK   69  A    between atoms: _162  and  _164
REMARK   70  A    between atoms: _164  and  _165
REMARK   71  A    between atoms: _164  and  _167
REMARK   72  A    between atoms: _167  and  _168
REMARK   73  A    between atoms: _171  and  _173
REMARK   74  A    between atoms: _173  and  _174
REMARK   75  A    between atoms: _173  and  _176
REMARK   76  A    between atoms: _179  and  _181
REMARK   77  A    between atoms: _181  and  _182
REMARK   78  A    between atoms: _181  and  _184
REMARK   79  A    between atoms: _184  and  _185
REMARK   80  A    between atoms: _189  and  _190
REMARK   81  A    between atoms: _195  and  _197
REMARK   82  A    between atoms: _197  and  _198
REMARK   83  A    between atoms: _197  and  _200
REMARK   84  A    between atoms: _200  and  _201
REMARK   85  A    between atoms: _205  and  _206
REMARK   86  A    between atoms: _211  and  _213
REMARK   87  A    between atoms: _213  and  _214
REMARK   88  A    between atoms: _213  and  _216
REMARK   89  A    between atoms: _219  and  _221
REMARK   90  A    between atoms: _221  and  _222
REMARK   91  A    between atoms: _221  and  _224
REMARK   92  A    between atoms: _224  and  _225
REMARK   93  A    between atoms: _230  and  _232
REMARK   94  A    between atoms: _232  and  _233
REMARK   95  A    between atoms: _232  and  _235
REMARK   96  A    between atoms: _235  and  _236
REMARK   97  A    between atoms: _239  and  _241
REMARK   98  A    between atoms: _241  and  _242
REMARK   99  A    between atoms: _244  and  _246
REMARK  100  A    between atoms: _246  and  _247
REMARK  101  A    between atoms: _246  and  _249
REMARK  102  A    between atoms: _249  and  _250
REMARK  103  A    between atoms: _250  and  _251
REMARK  104  A    between atoms: _251  and  _252
REMARK  105  A    between atoms: _261  and  _263
REMARK  106  A    between atoms: _263  and  _264
REMARK  107  A    between atoms: _263  and  _266
REMARK  108  A    between atoms: _266  and  _267
REMARK  109  A    between atoms: _272  and  _274
REMARK  110  A    between atoms: _274  and  _275
REMARK  111  A    between atoms: _274  and  _277
REMARK  112  A    between atoms: _277  and  _278
REMARK  113  A    between atoms: _278  and  _279
REMARK  114  A    between atoms: _279  and  _280
REMARK  115  A    between atoms: _289  and  _291
REMARK  116  A    between atoms: _291  and  _292
REMARK  117  A    between atoms: _291  and  _294
REMARK  118  A    between atoms: _294  and  _295
REMARK  119  A    between atoms: _298  and  _300
REMARK  120  A    between atoms: _300  and  _301
REMARK  121  A    between atoms: _300  and  _303
REMARK  122  A    between atoms: _303  and  _304
REMARK  123  A    between atoms: _307  and  _309
REMARK  124  A    between atoms: _309  and  _310
REMARK  125  A    between atoms: _309  and  _312
REMARK  126  A    between atoms: _312  and  _313
REMARK  127  A    between atoms: _316  and  _318
REMARK  128  A    between atoms: _318  and  _319
REMARK  129  A    between atoms: _318  and  _321
REMARK  130  A    between atoms: _321  and  _322
REMARK  131  A    between atoms: _325  and  _327
REMARK  132  A    between atoms: _327  and  _328
REMARK  133  A    between atoms: _330  and  _332
REMARK  134  A    between atoms: _332  and  _333
REMARK  135  A    between atoms: _336  and  _338
REMARK  136  A    between atoms: _338  and  _339
REMARK  137  A    between atoms: _338  and  _341
REMARK  138  A    between atoms: _341  and  _342
REMARK  139  A    between atoms: _345  and  _347
REMARK  140  A    between atoms: _347  and  _348
REMARK  141  A    between atoms: _347  and  _350
REMARK  142  A    between atoms: _350  and  _351
REMARK  143  A    between atoms: _356  and  _358
REMARK  144  A    between atoms: _358  and  _359
REMARK  145  A    between atoms: _358  and  _361
REMARK  146  A    between atoms: _361  and  _362
REMARK  147  A    between atoms: _365  and  _367
REMARK  148  A    between atoms: _367  and  _368
REMARK  149  A    between atoms: _367  and  _370
REMARK  150  A    between atoms: _373  and  _375
REMARK  151  A    between atoms: _375  and  _376
REMARK  152  A    between atoms: _375  and  _378
REMARK  153  A    between atoms: _378  and  _379
REMARK  154  A    between atoms: _382  and  _384
REMARK  155  A    between atoms: _384  and  _385
REMARK  156  A    between atoms: _384  and  _387
REMARK  157  A    between atoms: _387  and  _388
REMARK  158  A    between atoms: _388  and  _389
REMARK  159  A    between atoms: _389  and  _390
REMARK  160  A    between atoms: _390  and  _391
REMARK  161  A    between atoms: _395  and  _397
REMARK  162  A    between atoms: _397  and  _398
REMARK  163  A    between atoms: _397  and  _400
REMARK  164  A    between atoms: _400  and  _401
REMARK  165  A    between atoms: _401  and  _402
REMARK  166  A    between atoms: _404  and  _406
REMARK  167  A    between atoms: _406  and  _407
REMARK  168  A    between atoms: _406  and  _409
REMARK  169  A    between atoms: _409  and  _410
REMARK  170  A    between atoms: _413  and  _415
REMARK  171  A    between atoms: _415  and  _416
REMARK  172  A    between atoms: _418  and  _420
REMARK  173  A    between atoms: _420  and  _421
REMARK  174  A    between atoms: _423  and  _425
REMARK  175  A    between atoms: _425  and  _426
REMARK  176  A    between atoms: _425  and  _428
REMARK  177  A    between atoms: _428  and  _429
REMARK  178  A    between atoms: _432  and  _434
REMARK  179  A    between atoms: _434  and  _435
REMARK  180  A    between atoms: _437  and  _439
REMARK  181  A    between atoms: _439  and  _440
REMARK  182  A    between atoms: _442  and  _444
REMARK  183  A    between atoms: _444  and  _445
REMARK  184  A    between atoms: _444  and  _447
REMARK  185  A    between atoms: _447  and  _448
REMARK  186  A    between atoms: _454  and  _456
REMARK  187  A    between atoms: _456  and  _457
REMARK  188  A    between atoms: _456  and  _459
REMARK  189  A    between atoms: _459  and  _460
REMARK  190  A    between atoms: _463  and  _465
REMARK  191  A    between atoms: _465  and  _466
REMARK  192  A    between atoms: _465  and  _468
REMARK  193  A    between atoms: _471  and  _473
REMARK  194  A    between atoms: _473  and  _474
REMARK  195  A    between atoms: _473  and  _476
REMARK  196  A    between atoms: _476  and  _477
REMARK  197  A    between atoms: _480  and  _482
REMARK  198  A    between atoms: _482  and  _483
REMARK  199  A    between atoms: _482  and  _485
REMARK  200  A    between atoms: _485  and  _486
REMARK  201  A    between atoms: _490  and  _491
REMARK  202  A    between atoms: _496  and  _498
REMARK  203  A    between atoms: _498  and  _499
REMARK  204  A    between atoms: _498  and  _501
REMARK  205  A    between atoms: _504  and  _506
REMARK  206  A    between atoms: _506  and  _507
REMARK  207  A    between atoms: _506  and  _509
REMARK  208  A    between atoms: _509  and  _510
REMARK  209  A    between atoms: _515  and  _517
REMARK  210  A    between atoms: _517  and  _518
REMARK  211  A    between atoms: _517  and  _520
REMARK  212  A    between atoms: _520  and  _521
REMARK  213  A    between atoms: _524  and  _526
REMARK  214  A    between atoms: _526  and  _527
REMARK  215  A    between atoms: _526  and  _529
REMARK  216  A    between atoms: _529  and  _530
REMARK  217  A    between atoms: _533  and  _535
REMARK  218  A    between atoms: _535  and  _536
REMARK  219  A    between atoms: _538  and  _540
REMARK  220  A    between atoms: _540  and  _541
REMARK  221  A    between atoms: _540  and  _543
REMARK  222  A    between atoms: _543  and  _544
REMARK  223  A    between atoms: _544  and  _545
REMARK  224  A    between atoms: _545  and  _546
REMARK                            x       y       z     vdW  Elec       q    Type
REMARK                         _______ _______ _______ _____ _____    ______ ____
ROOT
ATOM      1  CA  ILE A   5      -5.162  21.861  32.140  0.00  0.00    +0.149 C 
ENDROOT
BRANCH   1   2
ATOM      2  C   ILE A   5      -5.830  22.492  33.348  0.00  0.00    +0.241 C 
ATOM      3  O   ILE A   5      -5.580  22.085  34.497  0.00  0.00    -0.273 OA
ATOM      4  N   ILE A   6      -6.650  23.511  33.090  0.00  0.00    -0.297 N 
ATOM      5  H   ILE A   6      -6.663  23.921  32.134  0.00  0.00    +0.150 HD
BRANCH   4   6
ATOM      6  CA  ILE A   6      -7.527  24.064  34.111  0.00  0.00    +0.149 C 
BRANCH   6   7
ATOM      7  C   ILE A   6      -8.900  23.468  33.820  0.00  0.00    +0.241 C 
ATOM      8  N   GLY A   7      -9.342  22.552  34.687  0.00  0.00    -0.295 N 
ATOM      9  H   GLY A   7      -8.755  22.312  35.512  0.00  0.00    +0.150 HD
ATOM     10  O   ILE A   6      -9.527  23.823  32.812  0.00  0.00    -0.273 OA
BRANCH   8  11
ATOM     11  CA  GLY A   7     -10.622  21.880  34.510  0.00  0.00    +0.176 C 
BRANCH  11  12
ATOM     12  C   GLY A   7     -11.749  22.629  35.198  0.00  0.00    +0.243 C 
ATOM     13  O   GLY A   7     -11.537  23.688  35.797  0.00  0.00    -0.273 OA
ATOM     14  N   ARG A   8     -12.945  22.059  35.141  0.00  0.00    -0.298 N 
ATOM     15  H   ARG A   8     -13.028  21.104  34.737  0.00  0.00    +0.150 HD
BRANCH  14  16
ATOM     16  CA  ARG A   8     -14.146  22.726  35.626  0.00  0.00    +0.137 C 
BRANCH  16  17
ATOM     17  C   ARG A   8     -14.167  23.029  37.134  0.00  0.00    +0.227 C 
ATOM     18  O   ARG A   8     -14.811  23.999  37.560  0.00  0.00    -0.286 OA
ENDBRANCH  16  17
BRANCH  16  19
ATOM     19  CB  ARG A   8     -15.388  21.930  35.232  0.00  0.00    +0.031 C 
BRANCH  19  20
ATOM     20  CG  ARG A   8     -15.731  22.006  33.749  0.00  0.00    +0.045 C 
BRANCH  20  21
ATOM     21  CD  ARG A   8     -17.080  21.316  33.431  0.00  0.00    +0.174 C 
BRANCH  21  22
ATOM     22  NE  ARG A   8     -17.123  19.932  33.899  0.00  0.00    -0.265 N 
ATOM     23  CZ  ARG A   8     -17.681  19.526  35.042  0.00  0.00    +0.342 C 
ATOM     24  NH2 ARG A   8     -18.255  20.393  35.874  0.00  0.00    -0.292 N 
ATOM     25 HH21 ARG A   8     -18.684  20.057  36.760  0.00  0.00    +0.255 HD
ATOM     26 HH22 ARG A   8     -18.274  21.406  35.638  0.00  0.00    +0.255 HD
ATOM     27  NH1 ARG A   8     -17.661  18.238  35.364  0.00  0.00    -0.292 N 
ATOM     28 HH11 ARG A   8     -18.094  17.918  36.253  0.00  0.00    +0.255 HD
ATOM     29 HH12 ARG A   8     -17.212  17.550  34.727  0.00  0.00    +0.255 HD
ATOM     30  HE  ARG A   8     -16.685  19.207  33.295  0.00  0.00    +0.259 HD
ENDBRANCH  21  22
ENDBRANCH  20  21
ENDBRANCH  19  20
ENDBRANCH  16  19
ENDBRANCH  14  16
ENDBRANCH  11  12
ENDBRANCH   8  11
ENDBRANCH   6   7
BRANCH   6  31
ATOM     31  CB  ILE A   6      -7.586  25.619  34.079  0.00  0.00    +0.027 C 
ATOM     32  CG2 ILE A   6      -8.477  26.162  35.208  0.00  0.00    +0.002 C 
BRANCH  31  33
ATOM     33  CG1 ILE A   6      -6.176  26.234  34.084  0.00  0.00    +0.002 C 
ATOM     34  CD1 ILE A   6      -5.310  25.836  35.276  0.00  0.00    +0.000 C 
ENDBRANCH  31  33
ENDBRANCH   6  31
ENDBRANCH   4   6
ENDBRANCH   1   2
BRANCH   1  36
ATOM     35  C   ASN A   4      -2.858  22.413  31.590  0.00  0.00    +0.241 C 
ATOM     36  N   ILE A   5      -3.737  21.796  32.371  0.00  0.00    -0.297 N 
ATOM     37  H   ILE A   5      -3.386  21.245  33.180  0.00  0.00    +0.150 HD
ATOM     38  O   ASN A   4      -3.193  23.140  30.655  0.00  0.00    -0.273 OA
BRANCH  35  39
ATOM     39  CA  ASN A   4      -1.375  22.143  31.899  0.00  0.00    +0.158 C 
BRANCH  39  41
ATOM     40  C   VAL A   3      -0.914  20.545  30.099  0.00  0.00    +0.241 C 
ATOM     41  N   ASN A   4      -0.649  21.709  30.701  0.00  0.00    -0.297 N 
ATOM     42  H   ASN A   4       0.093  22.324  30.309  0.00  0.00    +0.150 HD
ATOM     43  O   VAL A   3      -1.657  19.683  30.599  0.00  0.00    -0.273 OA
BRANCH  40  44
ATOM     44  CA  VAL A   3      -0.237  20.290  28.739  0.00  0.00    +0.149 C 
BRANCH  44  46
ATOM     45  C   PRO A   2       1.415  18.548  28.145  0.00  0.00    +0.241 C 
ATOM     46  N   VAL A   3       0.265  18.922  28.717  0.00  0.00    -0.297 N 
ATOM     47  H   VAL A   3      -0.309  18.187  29.177  0.00  0.00    +0.150 HD
ATOM     48  O   PRO A   2       2.220  19.335  27.635  0.00  0.00    -0.273 OA
BRANCH  45  55
ATOM     49  C   THR A   1       1.145  16.291  30.418  0.00  0.00    +0.244 C 
ATOM     50  O   THR A   1       2.081  16.944  30.902  0.00  0.00    -0.273 OA
ATOM     51  N   PRO A   2       0.887  16.256  29.084  0.00  0.00    -0.272 N 
ATOM     52  CD  PRO A   2      -0.146  15.484  28.367  0.00  0.00    +0.094 C 
ATOM     53  CG  PRO A   2       0.101  15.813  26.914  0.00  0.00    +0.024 C 
ATOM     54  CB  PRO A   2       1.448  16.409  26.792  0.00  0.00    +0.031 C 
ATOM     55  CA  PRO A   2       1.732  17.042  28.160  0.00  0.00    +0.152 C 
BRANCH  49  56
ATOM     56  CA  THR A   1       0.250  15.454  31.342  0.00  0.00    +0.172 C 
BRANCH  56  57
ATOM     57  N   THR A   1       1.071  14.839  32.394  0.00  0.00    -0.236 NA
ATOM     58  H   THR A   1       1.043  15.254  33.347  0.00  0.00    +0.142 HD
ENDBRANCH  56  57
BRANCH  56  59
ATOM     59  CB  THR A   1      -0.884  16.348  31.939  0.00  0.00    +0.135 C 
ATOM     60  CG2 THR A   1      -0.312  17.482  32.805  0.00  0.00    +0.034 C 
BRANCH  59  61
ATOM     61  OG1 THR A   1      -1.681  16.905  30.879  0.00  0.00    -0.383 OA
ATOM     62  HG1 THR A   1      -1.107  17.456  30.291  0.00  0.00    +0.210 HD
ENDBRANCH  59  61
ENDBRANCH  56  59
ENDBRANCH  49  56
ENDBRANCH  45  55
ENDBRANCH  44  46
BRANCH  44  63
ATOM     63  CB  VAL A   3      -1.261  20.512  27.578  0.00  0.00    +0.027 C 
ATOM     64  CG2 VAL A   3      -1.890  21.880  27.644  0.00  0.00    +0.002 C 
ATOM     65  CG1 VAL A   3      -0.595  20.304  26.205  0.00  0.00    +0.002 C 
ENDBRANCH  44  63
ENDBRANCH  40  44
ENDBRANCH  39  41
BRANCH  39  66
ATOM     66  CB  ASN A   4      -0.727  23.380  32.527  0.00  0.00    +0.114 C 
BRANCH  66  67
ATOM     67  CG  ASN A   4       0.726  23.150  32.934  0.00  0.00    +0.222 C 
ATOM     68  OD1 ASN A   4       1.077  22.122  33.520  0.00  0.00    -0.275 OA
ATOM     69  ND2 ASN A   4       1.574  24.119  32.633  0.00  0.00    -0.329 N 
ATOM     70 HD21 ASN A   4       2.578  24.031  32.891  0.00  0.00    +0.145 HD
ATOM     71 HD22 ASN A   4       1.237  24.970  32.138  0.00  0.00    +0.145 HD
ENDBRANCH  66  67
ENDBRANCH  39  66
ENDBRANCH  35  39
ENDBRANCH   1  36
BRANCH   1  72
ATOM     72  CB  ILE A   5      -5.737  20.445  31.919  0.00  0.00    +0.027 C 
ATOM     73  CG2 ILE A   5      -7.262  20.439  32.009  0.00  0.00    +0.002 C 
BRANCH  72  74
ATOM     74  CG1 ILE A   5      -5.327  19.908  30.549  0.00  0.00    +0.002 C 
ATOM     75  CD1 ILE A   5      -4.939  18.467  30.633  0.00  0.00    +0.000 C 
ENDBRANCH  72  74
ENDBRANCH   1  72
TORSDOF 28
REMARK  Name = ../refined-set-2016/2q64/2q64_pocket.pdb
REMARK  224 active torsions:
REMARK  status: ('A' for Active; 'I' for Inactive)
REMARK    1  A    between atoms: _1  and  _3
REMARK    2  A    between atoms: _3  and  _4
REMARK    3  A    between atoms: _3  and  _6
REMARK    4  A    between atoms: _6  and  _7
REMARK    5  A    between atoms: _7  and  _8
REMARK    6  A    between atoms: _8  and  _9
REMARK    7  A    between atoms: _18  and  _20
REMARK    8  A    between atoms: _20  and  _21
REMARK    9  A    between atoms: _20  and  _23
REMARK   10  A    between atoms: _23  and  _24
REMARK   11  A    between atoms: _27  and  _29
REMARK   12  A    between atoms: _29  and  _30
REMARK   13  A    between atoms: _29  and  _32
REMARK   14  A    between atoms: _32  and  _33
REMARK   15  A    between atoms: _36  and  _38
REMARK   16  A    between atoms: _38  and  _39
REMARK   17  A    between atoms: _38  and  _41
REMARK   18  A    between atoms: _41  and  _42
REMARK   19  A    between atoms: _45  and  _47
REMARK   20  A    between atoms: _47  and  _48
REMARK   21  A    between atoms: _47  and  _50
REMARK   22  A    between atoms: _50  and  _51
REMARK   23  A    between atoms: _54  and  _56
REMARK   24  A    between atoms: _56  and  _57
REMARK   25  A    between atoms: _59  and  _61
REMARK   26  A    between atoms: _61  and  _62
REMARK   27  A    between atoms: _65  and  _67
REMARK   28  A    between atoms: _67  and  _68
REMARK   29  A    between atoms: _67  and  _70
REMARK   30  A    between atoms: _70  and  _71
REMARK   31  A    between atoms: _74  and  _76
REMARK   32  A    between atoms: _76  and  _77
REMARK   33  A    between atoms: _76  and  _79
REMARK   34  A    between atoms: _79  and  _80
REMARK   35  A    between atoms: _85  and  _87
REMARK   36  A    between atoms: _87  and  _88
REMARK   37  A    between atoms: _87  and  _90
REMARK   38  A    between atoms: _90  and  _91
REMARK   39  A    between atoms: _94  and  _96
REMARK   40  A    between atoms: _96  and  _97
REMARK   41  A    between atoms: _96  and  _99
REMARK   42  A    between atoms: _102  and  _104
REMARK   43  A    between atoms: _104  and  _105
REMARK   44  A    between atoms: _104  and  _107
REMARK   45  A    between atoms: _107  and  _108
REMARK   46  A    between atoms: _108  and  _109
REMARK   47  A    between atoms: _109  and  _110
REMARK   48  A    between atoms: _110  and  _111
REMARK   49  A    between atoms: _115  and  _117
REMARK   50  A    between atoms: _117  and  _118
REMARK   51  A    between atoms: _117  and  _120
REMARK   52  A    between atoms: _120  and  _121
REMARK   53  A    between atoms: _121  and  _122
REMARK   54  A    between atoms: _124  and  _126
REMARK   55  A    between atoms: _126  and  _127
REMARK   56  A    between atoms: _126  and  _129
REMARK   57  A    between atoms: _129  and  _130
REMARK   58  A    between atoms: _133  and  _135
REMARK   59  A    between atoms: _135  and  _136
REMARK   60  A    between atoms: _138  and  _140
REMARK   61  A    between atoms: _140  and  _141
REMARK   62  A    between atoms: _145  and  _146
REMARK   63  A    between atoms: _145  and  _148
REMARK   64  A    between atoms: _148  and  _149
REMARK   65  A    between atoms: _152  and  _154
REMARK   66  A    between atoms: _154  and  _155
REMARK   67  A    between atoms: _157  and  _159
REMARK   68  A    between atoms: _159  and  _160
REMARK   69  A    between atoms: _162  and  _164
REMARK   70  A    between atoms: _164  and  _165
REMARK   71  A    between atoms: _164  and  _167
REMARK   72  A    between atoms: _167  and  _168
REMARK   73  A    between atoms: _171  and  _173
REMARK   74  A    between atoms: _173  and  _174
REMARK   75  A    between atoms: _173  and  _176
REMARK   76  A    between atoms: _179  and  _181
REMARK   77  A    between atoms: _181  and  _182
REMARK   78  A    between atoms: _181  and  _184
REMARK   79  A    between atoms: _184  and  _185
REMARK   80  A    between atoms: _189  and  _190
REMARK   81  A    between atoms: _195  and  _197
REMARK   82  A    between atoms: _197  and  _198
REMARK   83  A    between atoms: _197  and  _200
REMARK   84  A    between atoms: _200  and  _201
REMARK   85  A    between atoms: _205  and  _206
REMARK   86  A    between atoms: _211  and  _213
REMARK   87  A    between atoms: _213  and  _214
REMARK   88  A    between atoms: _213  and  _216
REMARK   89  A    between atoms: _219  and  _221
REMARK   90  A    between atoms: _221  and  _222
REMARK   91  A    between atoms: _221  and  _224
REMARK   92  A    between atoms: _224  and  _225
REMARK   93  A    between atoms: _230  and  _232
REMARK   94  A    between atoms: _232  and  _233
REMARK   95  A    between atoms: _232  and  _235
REMARK   96  A    between atoms: _235  and  _236
REMARK   97  A    between atoms: _239  and  _241
REMARK   98  A    between atoms: _241  and  _242
REMARK   99  A    between atoms: _244  and  _246
REMARK  100  A    between atoms: _246  and  _247
REMARK  101  A    between atoms: _246  and  _249
REMARK  102  A    between atoms: _249  and  _250
REMARK  103  A    between atoms: _250  and  _251
REMARK  104  A    between atoms: _251  and  _252
REMARK  105  A    between atoms: _261  and  _263
REMARK  106  A    between atoms: _263  and  _264
REMARK  107  A    between atoms: _263  and  _266
REMARK  108  A    between atoms: _266  and  _267
REMARK  109  A    between atoms: _272  and  _274
REMARK  110  A    between atoms: _274  and  _275
REMARK  111  A    between atoms: _274  and  _277
REMARK  112  A    between atoms: _277  and  _278
REMARK  113  A    between atoms: _278  and  _279
REMARK  114  A    between atoms: _279  and  _280
REMARK  115  A    between atoms: _289  and  _291
REMARK  116  A    between atoms: _291  and  _292
REMARK  117  A    between atoms: _291  and  _294
REMARK  118  A    between atoms: _294  and  _295
REMARK  119  A    between atoms: _298  and  _300
REMARK  120  A    between atoms: _300  and  _301
REMARK  121  A    between atoms: _300  and  _303
REMARK  122  A    between atoms: _303  and  _304
REMARK  123  A    between atoms: _307  and  _309
REMARK  124  A    between atoms: _309  and  _310
REMARK  125  A    between atoms: _309  and  _312
REMARK  126  A    between atoms: _312  and  _313
REMARK  127  A    between atoms: _316  and  _318
REMARK  128  A    between atoms: _318  and  _319
REMARK  129  A    between atoms: _318  and  _321
REMARK  130  A    between atoms: _321  and  _322
REMARK  131  A    between atoms: _325  and  _327
REMARK  132  A    between atoms: _327  and  _328
REMARK  133  A    between atoms: _330  and  _332
REMARK  134  A    between atoms: _332  and  _333
REMARK  135  A    between atoms: _336  and  _338
REMARK  136  A    between atoms: _338  and  _339
REMARK  137  A    between atoms: _338  and  _341
REMARK  138  A    between atoms: _341  and  _342
REMARK  139  A    between atoms: _345  and  _347
REMARK  140  A    between atoms: _347  and  _348
REMARK  141  A    between atoms: _347  and  _350
REMARK  142  A    between atoms: _350  and  _351
REMARK  143  A    between atoms: _356  and  _358
REMARK  144  A    between atoms: _358  and  _359
REMARK  145  A    between atoms: _358  and  _361
REMARK  146  A    between atoms: _361  and  _362
REMARK  147  A    between atoms: _365  and  _367
REMARK  148  A    between atoms: _367  and  _368
REMARK  149  A    between atoms: _367  and  _370
REMARK  150  A    between atoms: _373  and  _375
REMARK  151  A    between atoms: _375  and  _376
REMARK  152  A    between atoms: _375  and  _378
REMARK  153  A    between atoms: _378  and  _379
REMARK  154  A    between atoms: _382  and  _384
REMARK  155  A    between atoms: _384  and  _385
REMARK  156  A    between atoms: _384  and  _387
REMARK  157  A    between atoms: _387  and  _388
REMARK  158  A    between atoms: _388  and  _389
REMARK  159  A    between atoms: _389  and  _390
REMARK  160  A    between atoms: _390  and  _391
REMARK  161  A    between atoms: _395  and  _397
REMARK  162  A    between atoms: _397  and  _398
REMARK  163  A    between atoms: _397  and  _400
REMARK  164  A    between atoms: _400  and  _401
REMARK  165  A    between atoms: _401  and  _402
REMARK  166  A    between atoms: _404  and  _406
REMARK  167  A    between atoms: _406  and  _407
REMARK  168  A    between atoms: _406  and  _409
REMARK  169  A    between atoms: _409  and  _410
REMARK  170  A    between atoms: _413  and  _415
REMARK  171  A    between atoms: _415  and  _416
REMARK  172  A    between atoms: _418  and  _420
REMARK  173  A    between atoms: _420  and  _421
REMARK  174  A    between atoms: _423  and  _425
REMARK  175  A    between atoms: _425  and  _426
REMARK  176  A    between atoms: _425  and  _428
REMARK  177  A    between atoms: _428  and  _429
REMARK  178  A    between atoms: _432  and  _434
REMARK  179  A    between atoms: _434  and  _435
REMARK  180  A    between atoms: _437  and  _439
REMARK  181  A    between atoms: _439  and  _440
REMARK  182  A    between atoms: _442  and  _444
REMARK  183  A    between atoms: _444  and  _445
REMARK  184  A    between atoms: _444  and  _447
REMARK  185  A    between atoms: _447  and  _448
REMARK  186  A    between atoms: _454  and  _456
REMARK  187  A    between atoms: _456  and  _457
REMARK  188  A    between atoms: _456  and  _459
REMARK  189  A    between atoms: _459  and  _460
REMARK  190  A    between atoms: _463  and  _465
REMARK  191  A    between atoms: _465  and  _466
REMARK  192  A    between atoms: _465  and  _468
REMARK  193  A    between atoms: _471  and  _473
REMARK  194  A    between atoms: _473  and  _474
REMARK  195  A    between atoms: _473  and  _476
REMARK  196  A    between atoms: _476  and  _477
REMARK  197  A    between atoms: _480  and  _482
REMARK  198  A    between atoms: _482  and  _483
REMARK  199  A    between atoms: _482  and  _485
REMARK  200  A    between atoms: _485  and  _486
REMARK  201  A    between atoms: _490  and  _491
REMARK  202  A    between atoms: _496  and  _498
REMARK  203  A    between atoms: _498  and  _499
REMARK  204  A    between atoms: _498  and  _501
REMARK  205  A    between atoms: _504  and  _506
REMARK  206  A    between atoms: _506  and  _507
REMARK  207  A    between atoms: _506  and  _509
REMARK  208  A    between atoms: _509  and  _510
REMARK  209  A    between atoms: _515  and  _517
REMARK  210  A    between atoms: _517  and  _518
REMARK  211  A    between atoms: _517  and  _520
REMARK  212  A    between atoms: _520  and  _521
REMARK  213  A    between atoms: _524  and  _526
REMARK  214  A    between atoms: _526  and  _527
REMARK  215  A    between atoms: _526  and  _529
REMARK  216  A    between atoms: _529  and  _530
REMARK  217  A    between atoms: _533  and  _535
REMARK  218  A    between atoms: _535  and  _536
REMARK  219  A    between atoms: _538  and  _540
REMARK  220  A    between atoms: _540  and  _541
REMARK  221  A    between atoms: _540  and  _543
REMARK  222  A    between atoms: _543  and  _544
REMARK  223  A    between atoms: _544  and  _545
REMARK  224  A    between atoms: _545  and  _546
REMARK                            x       y       z     vdW  Elec       q    Type
REMARK                         _______ _______ _______ _____ _____    ______ ____
ROOT
ATOM      1  O   HOH     1     -11.976  16.769  14.035  0.00  0.00    +0.000 OA
ENDROOT
TORSDOF 0
REMARK  Name = ../refined-set-2016/2q64/2q64_pocket.pdb
REMARK  224 active torsions:
REMARK  status: ('A' for Active; 'I' for Inactive)
REMARK    1  A    between atoms: _1  and  _3
REMARK    2  A    between atoms: _3  and  _4
REMARK    3  A    between atoms: _3  and  _6
REMARK    4  A    between atoms: _6  and  _7
REMARK    5  A    between atoms: _7  and  _8
REMARK    6  A    between atoms: _8  and  _9
REMARK    7  A    between atoms: _18  and  _20
REMARK    8  A    between atoms: _20  and  _21
REMARK    9  A    between atoms: _20  and  _23
REMARK   10  A    between atoms: _23  and  _24
REMARK   11  A    between atoms: _27  and  _29
REMARK   12  A    between atoms: _29  and  _30
REMARK   13  A    between atoms: _29  and  _32
REMARK   14  A    between atoms: _32  and  _33
REMARK   15  A    between atoms: _36  and  _38
REMARK   16  A    between atoms: _38  and  _39
REMARK   17  A    between atoms: _38  and  _41
REMARK   18  A    between atoms: _41  and  _42
REMARK   19  A    between atoms: _45  and  _47
REMARK   20  A    between atoms: _47  and  _48
REMARK   21  A    between atoms: _47  and  _50
REMARK   22  A    between atoms: _50  and  _51
REMARK   23  A    between atoms: _54  and  _56
REMARK   24  A    between atoms: _56  and  _57
REMARK   25  A    between atoms: _59  and  _61
REMARK   26  A    between atoms: _61  and  _62
REMARK   27  A    between atoms: _65  and  _67
REMARK   28  A    between atoms: _67  and  _68
REMARK   29  A    between atoms: _67  and  _70
REMARK   30  A    between atoms: _70  and  _71
REMARK   31  A    between atoms: _74  and  _76
REMARK   32  A    between atoms: _76  and  _77
REMARK   33  A    between atoms: _76  and  _79
REMARK   34  A    between atoms: _79  and  _80
REMARK   35  A    between atoms: _85  and  _87
REMARK   36  A    between atoms: _87  and  _88
REMARK   37  A    between atoms: _87  and  _90
REMARK   38  A    between atoms: _90  and  _91
REMARK   39  A    between atoms: _94  and  _96
REMARK   40  A    between atoms: _96  and  _97
REMARK   41  A    between atoms: _96  and  _99
REMARK   42  A    between atoms: _102  and  _104
REMARK   43  A    between atoms: _104  and  _105
REMARK   44  A    between atoms: _104  and  _107
REMARK   45  A    between atoms: _107  and  _108
REMARK   46  A    between atoms: _108  and  _109
REMARK   47  A    between atoms: _109  and  _110
REMARK   48  A    between atoms: _110  and  _111
REMARK   49  A    between atoms: _115  and  _117
REMARK   50  A    between atoms: _117  and  _118
REMARK   51  A    between atoms: _117  and  _120
REMARK   52  A    between atoms: _120  and  _121
REMARK   53  A    between atoms: _121  and  _122
REMARK   54  A    between atoms: _124  and  _126
REMARK   55  A    between atoms: _126  and  _127
REMARK   56  A    between atoms: _126  and  _129
REMARK   57  A    between atoms: _129  and  _130
REMARK   58  A    between atoms: _133  and  _135
REMARK   59  A    between atoms: _135  and  _136
REMARK   60  A    between atoms: _138  and  _140
REMARK   61  A    between atoms: _140  and  _141
REMARK   62  A    between atoms: _145  and  _146
REMARK   63  A    between atoms: _145  and  _148
REMARK   64  A    between atoms: _148  and  _149
REMARK   65  A    between atoms: _152  and  _154
REMARK   66  A    between atoms: _154  and  _155
REMARK   67  A    between atoms: _157  and  _159
REMARK   68  A    between atoms: _159  and  _160
REMARK   69  A    between atoms: _162  and  _164
REMARK   70  A    between atoms: _164  and  _165
REMARK   71  A    between atoms: _164  and  _167
REMARK   72  A    between atoms: _167  and  _168
REMARK   73  A    between atoms: _171  and  _173
REMARK   74  A    between atoms: _173  and  _174
REMARK   75  A    between atoms: _173  and  _176
REMARK   76  A    between atoms: _179  and  _181
REMARK   77  A    between atoms: _181  and  _182
REMARK   78  A    between atoms: _181  and  _184
REMARK   79  A    between atoms: _184  and  _185
REMARK   80  A    between atoms: _189  and  _190
REMARK   81  A    between atoms: _195  and  _197
REMARK   82  A    between atoms: _197  and  _198
REMARK   83  A    between atoms: _197  and  _200
REMARK   84  A    between atoms: _200  and  _201
REMARK   85  A    between atoms: _205  and  _206
REMARK   86  A    between atoms: _211  and  _213
REMARK   87  A    between atoms: _213  and  _214
REMARK   88  A    between atoms: _213  and  _216
REMARK   89  A    between atoms: _219  and  _221
REMARK   90  A    between atoms: _221  and  _222
REMARK   91  A    between atoms: _221  and  _224
REMARK   92  A    between atoms: _224  and  _225
REMARK   93  A    between atoms: _230  and  _232
REMARK   94  A    between atoms: _232  and  _233
REMARK   95  A    between atoms: _232  and  _235
REMARK   96  A    between atoms: _235  and  _236
REMARK   97  A    between atoms: _239  and  _241
REMARK   98  A    between atoms: _241  and  _242
REMARK   99  A    between atoms: _244  and  _246
REMARK  100  A    between atoms: _246  and  _247
REMARK  101  A    between atoms: _246  and  _249
REMARK  102  A    between atoms: _249  and  _250
REMARK  103  A    between atoms: _250  and  _251
REMARK  104  A    between atoms: _251  and  _252
REMARK  105  A    between atoms: _261  and  _263
REMARK  106  A    between atoms: _263  and  _264
REMARK  107  A    between atoms: _263  and  _266
REMARK  108  A    between atoms: _266  and  _267
REMARK  109  A    between atoms: _272  and  _274
REMARK  110  A    between atoms: _274  and  _275
REMARK  111  A    between atoms: _274  and  _277
REMARK  112  A    between atoms: _277  and  _278
REMARK  113  A    between atoms: _278  and  _279
REMARK  114  A    between atoms: _279  and  _280
REMARK  115  A    between atoms: _289  and  _291
REMARK  116  A    between atoms: _291  and  _292
REMARK  117  A    between atoms: _291  and  _294
REMARK  118  A    between atoms: _294  and  _295
REMARK  119  A    between atoms: _298  and  _300
REMARK  120  A    between atoms: _300  and  _301
REMARK  121  A    between atoms: _300  and  _303
REMARK  122  A    between atoms: _303  and  _304
REMARK  123  A    between atoms: _307  and  _309
REMARK  124  A    between atoms: _309  and  _310
REMARK  125  A    between atoms: _309  and  _312
REMARK  126  A    between atoms: _312  and  _313
REMARK  127  A    between atoms: _316  and  _318
REMARK  128  A    between atoms: _318  and  _319
REMARK  129  A    between atoms: _318  and  _321
REMARK  130  A    between atoms: _321  and  _322
REMARK  131  A    between atoms: _325  and  _327
REMARK  132  A    between atoms: _327  and  _328
REMARK  133  A    between atoms: _330  and  _332
REMARK  134  A    between atoms: _332  and  _333
REMARK  135  A    between atoms: _336  and  _338
REMARK  136  A    between atoms: _338  and  _339
REMARK  137  A    between atoms: _338  and  _341
REMARK  138  A    between atoms: _341  and  _342
REMARK  139  A    between atoms: _345  and  _347
REMARK  140  A    between atoms: _347  and  _348
REMARK  141  A    between atoms: _347  and  _350
REMARK  142  A    between atoms: _350  and  _351
REMARK  143  A    between atoms: _356  and  _358
REMARK  144  A    between atoms: _358  and  _359
REMARK  145  A    between atoms: _358  and  _361
REMARK  146  A    between atoms: _361  and  _362
REMARK  147  A    between atoms: _365  and  _367
REMARK  148  A    between atoms: _367  and  _368
REMARK  149  A    between atoms: _367  and  _370
REMARK  150  A    between atoms: _373  and  _375
REMARK  151  A    between atoms: _375  and  _376
REMARK  152  A    between atoms: _375  and  _378
REMARK  153  A    between atoms: _378  and  _379
REMARK  154  A    between atoms: _382  and  _384
REMARK  155  A    between atoms: _384  and  _385
REMARK  156  A    between atoms: _384  and  _387
REMARK  157  A    between atoms: _387  and  _388
REMARK  158  A    between atoms: _388  and  _389
REMARK  159  A    between atoms: _389  and  _390
REMARK  160  A    between atoms: _390  and  _391
REMARK  161  A    between atoms: _395  and  _397
REMARK  162  A    between atoms: _397  and  _398
REMARK  163  A    between atoms: _397  and  _400
REMARK  164  A    between atoms: _400  and  _401
REMARK  165  A    between atoms: _401  and  _402
REMARK  166  A    between atoms: _404  and  _406
REMARK  167  A    between atoms: _406  and  _407
REMARK  168  A    between atoms: _406  and  _409
REMARK  169  A    between atoms: _409  and  _410
REMARK  170  A    between atoms: _413  and  _415
REMARK  171  A    between atoms: _415  and  _416
REMARK  172  A    between atoms: _418  and  _420
REMARK  173  A    between atoms: _420  and  _421
REMARK  174  A    between atoms: _423  and  _425
REMARK  175  A    between atoms: _425  and  _426
REMARK  176  A    between atoms: _425  and  _428
REMARK  177  A    between atoms: _428  and  _429
REMARK  178  A    between atoms: _432  and  _434
REMARK  179  A    between atoms: _434  and  _435
REMARK  180  A    between atoms: _437  and  _439
REMARK  181  A    between atoms: _439  and  _440
REMARK  182  A    between atoms: _442  and  _444
REMARK  183  A    between atoms: _444  and  _445
REMARK  184  A    between atoms: _444  and  _447
REMARK  185  A    between atoms: _447  and  _448
REMARK  186  A    between atoms: _454  and  _456
REMARK  187  A    between atoms: _456  and  _457
REMARK  188  A    between atoms: _456  and  _459
REMARK  189  A    between atoms: _459  and  _460
REMARK  190  A    between atoms: _463  and  _465
REMARK  191  A    between atoms: _465  and  _466
REMARK  192  A    between atoms: _465  and  _468
REMARK  193  A    between atoms: _471  and  _473
REMARK  194  A    between atoms: _473  and  _474
REMARK  195  A    between atoms: _473  and  _476
REMARK  196  A    between atoms: _476  and  _477
REMARK  197  A    between atoms: _480  and  _482
REMARK  198  A    between atoms: _482  and  _483
REMARK  199  A    between atoms: _482  and  _485
REMARK  200  A    between atoms: _485  and  _486
REMARK  201  A    between atoms: _490  and  _491
REMARK  202  A    between atoms: _496  and  _498
REMARK  203  A    between atoms: _498  and  _499
REMARK  204  A    between atoms: _498  and  _501
REMARK  205  A    between atoms: _504  and  _506
REMARK  206  A    between atoms: _506  and  _507
REMARK  207  A    between atoms: _506  and  _509
REMARK  208  A    between atoms: _509  and  _510
REMARK  209  A    between atoms: _515  and  _517
REMARK  210  A    between atoms: _517  and  _518
REMARK  211  A    between atoms: _517  and  _520
REMARK  212  A    between atoms: _520  and  _521
REMARK  213  A    between atoms: _524  and  _526
REMARK  214  A    between atoms: _526  and  _527
REMARK  215  A    between atoms: _526  and  _529
REMARK  216  A    between atoms: _529  and  _530
REMARK  217  A    between atoms: _533  and  _535
REMARK  218  A    between atoms: _535  and  _536
REMARK  219  A    between atoms: _538  and  _540
REMARK  220  A    between atoms: _540  and  _541
REMARK  221  A    between atoms: _540  and  _543
REMARK  222  A    between atoms: _543  and  _544
REMARK  223  A    between atoms: _544  and  _545
REMARK  224  A    between atoms: _545  and  _546
REMARK                            x       y       z     vdW  Elec       q    Type
REMARK                         _______ _______ _______ _____ _____    ______ ____
ROOT
ATOM      1  O   HOH     1      -7.960  23.521  22.650  0.00  0.00    +0.000 OA
ENDROOT
TORSDOF 0
REMARK  Name = ../refined-set-2016/2q64/2q64_pocket.pdb
REMARK  224 active torsions:
REMARK  status: ('A' for Active; 'I' for Inactive)
REMARK    1  A    between atoms: _1  and  _3
REMARK    2  A    between atoms: _3  and  _4
REMARK    3  A    between atoms: _3  and  _6
REMARK    4  A    between atoms: _6  and  _7
REMARK    5  A    between atoms: _7  and  _8
REMARK    6  A    between atoms: _8  and  _9
REMARK    7  A    between atoms: _18  and  _20
REMARK    8  A    between atoms: _20  and  _21
REMARK    9  A    between atoms: _20  and  _23
REMARK   10  A    between atoms: _23  and  _24
REMARK   11  A    between atoms: _27  and  _29
REMARK   12  A    between atoms: _29  and  _30
REMARK   13  A    between atoms: _29  and  _32
REMARK   14  A    between atoms: _32  and  _33
REMARK   15  A    between atoms: _36  and  _38
REMARK   16  A    between atoms: _38  and  _39
REMARK   17  A    between atoms: _38  and  _41
REMARK   18  A    between atoms: _41  and  _42
REMARK   19  A    between atoms: _45  and  _47
REMARK   20  A    between atoms: _47  and  _48
REMARK   21  A    between atoms: _47  and  _50
REMARK   22  A    between atoms: _50  and  _51
REMARK   23  A    between atoms: _54  and  _56
REMARK   24  A    between atoms: _56  and  _57
REMARK   25  A    between atoms: _59  and  _61
REMARK   26  A    between atoms: _61  and  _62
REMARK   27  A    between atoms: _65  and  _67
REMARK   28  A    between atoms: _67  and  _68
REMARK   29  A    between atoms: _67  and  _70
REMARK   30  A    between atoms: _70  and  _71
REMARK   31  A    between atoms: _74  and  _76
REMARK   32  A    between atoms: _76  and  _77
REMARK   33  A    between atoms: _76  and  _79
REMARK   34  A    between atoms: _79  and  _80
REMARK   35  A    between atoms: _85  and  _87
REMARK   36  A    between atoms: _87  and  _88
REMARK   37  A    between atoms: _87  and  _90
REMARK   38  A    between atoms: _90  and  _91
REMARK   39  A    between atoms: _94  and  _96
REMARK   40  A    between atoms: _96  and  _97
REMARK   41  A    between atoms: _96  and  _99
REMARK   42  A    between atoms: _102  and  _104
REMARK   43  A    between atoms: _104  and  _105
REMARK   44  A    between atoms: _104  and  _107
REMARK   45  A    between atoms: _107  and  _108
REMARK   46  A    between atoms: _108  and  _109
REMARK   47  A    between atoms: _109  and  _110
REMARK   48  A    between atoms: _110  and  _111
REMARK   49  A    between atoms: _115  and  _117
REMARK   50  A    between atoms: _117  and  _118
REMARK   51  A    between atoms: _117  and  _120
REMARK   52  A    between atoms: _120  and  _121
REMARK   53  A    between atoms: _121  and  _122
REMARK   54  A    between atoms: _124  and  _126
REMARK   55  A    between atoms: _126  and  _127
REMARK   56  A    between atoms: _126  and  _129
REMARK   57  A    between atoms: _129  and  _130
REMARK   58  A    between atoms: _133  and  _135
REMARK   59  A    between atoms: _135  and  _136
REMARK   60  A    between atoms: _138  and  _140
REMARK   61  A    between atoms: _140  and  _141
REMARK   62  A    between atoms: _145  and  _146
REMARK   63  A    between atoms: _145  and  _148
REMARK   64  A    between atoms: _148  and  _149
REMARK   65  A    between atoms: _152  and  _154
REMARK   66  A    between atoms: _154  and  _155
REMARK   67  A    between atoms: _157  and  _159
REMARK   68  A    between atoms: _159  and  _160
REMARK   69  A    between atoms: _162  and  _164
REMARK   70  A    between atoms: _164  and  _165
REMARK   71  A    between atoms: _164  and  _167
REMARK   72  A    between atoms: _167  and  _168
REMARK   73  A    between atoms: _171  and  _173
REMARK   74  A    between atoms: _173  and  _174
REMARK   75  A    between atoms: _173  and  _176
REMARK   76  A    between atoms: _179  and  _181
REMARK   77  A    between atoms: _181  and  _182
REMARK   78  A    between atoms: _181  and  _184
REMARK   79  A    between atoms: _184  and  _185
REMARK   80  A    between atoms: _189  and  _190
REMARK   81  A    between atoms: _195  and  _197
REMARK   82  A    between atoms: _197  and  _198
REMARK   83  A    between atoms: _197  and  _200
REMARK   84  A    between atoms: _200  and  _201
REMARK   85  A    between atoms: _205  and  _206
REMARK   86  A    between atoms: _211  and  _213
REMARK   87  A    between atoms: _213  and  _214
REMARK   88  A    between atoms: _213  and  _216
REMARK   89  A    between atoms: _219  and  _221
REMARK   90  A    between atoms: _221  and  _222
REMARK   91  A    between atoms: _221  and  _224
REMARK   92  A    between atoms: _224  and  _225
REMARK   93  A    between atoms: _230  and  _232
REMARK   94  A    between atoms: _232  and  _233
REMARK   95  A    between atoms: _232  and  _235
REMARK   96  A    between atoms: _235  and  _236
REMARK   97  A    between atoms: _239  and  _241
REMARK   98  A    between atoms: _241  and  _242
REMARK   99  A    between atoms: _244  and  _246
REMARK  100  A    between atoms: _246  and  _247
REMARK  101  A    between atoms: _246  and  _249
REMARK  102  A    between atoms: _249  and  _250
REMARK  103  A    between atoms: _250  and  _251
REMARK  104  A    between atoms: _251  and  _252
REMARK  105  A    between atoms: _261  and  _263
REMARK  106  A    between atoms: _263  and  _264
REMARK  107  A    between atoms: _263  and  _266
REMARK  108  A    between atoms: _266  and  _267
REMARK  109  A    between atoms: _272  and  _274
REMARK  110  A    between atoms: _274  and  _275
REMARK  111  A    between atoms: _274  and  _277
REMARK  112  A    between atoms: _277  and  _278
REMARK  113  A    between atoms: _278  and  _279
REMARK  114  A    between atoms: _279  and  _280
REMARK  115  A    between atoms: _289  and  _291
REMARK  116  A    between atoms: _291  and  _292
REMARK  117  A    between atoms: _291  and  _294
REMARK  118  A    between atoms: _294  and  _295
REMARK  119  A    between atoms: _298  and  _300
REMARK  120  A    between atoms: _300  and  _301
REMARK  121  A    between atoms: _300  and  _303
REMARK  122  A    between atoms: _303  and  _304
REMARK  123  A    between atoms: _307  and  _309
REMARK  124  A    between atoms: _309  and  _310
REMARK  125  A    between atoms: _309  and  _312
REMARK  126  A    between atoms: _312  and  _313
REMARK  127  A    between atoms: _316  and  _318
REMARK  128  A    between atoms: _318  and  _319
REMARK  129  A    between atoms: _318  and  _321
REMARK  130  A    between atoms: _321  and  _322
REMARK  131  A    between atoms: _325  and  _327
REMARK  132  A    between atoms: _327  and  _328
REMARK  133  A    between atoms: _330  and  _332
REMARK  134  A    between atoms: _332  and  _333
REMARK  135  A    between atoms: _336  and  _338
REMARK  136  A    between atoms: _338  and  _339
REMARK  137  A    between atoms: _338  and  _341
REMARK  138  A    between atoms: _341  and  _342
REMARK  139  A    between atoms: _345  and  _347
REMARK  140  A    between atoms: _347  and  _348
REMARK  141  A    between atoms: _347  and  _350
REMARK  142  A    between atoms: _350  and  _351
REMARK  143  A    between atoms: _356  and  _358
REMARK  144  A    between atoms: _358  and  _359
REMARK  145  A    between atoms: _358  and  _361
REMARK  146  A    between atoms: _361  and  _362
REMARK  147  A    between atoms: _365  and  _367
REMARK  148  A    between atoms: _367  and  _368
REMARK  149  A    between atoms: _367  and  _370
REMARK  150  A    between atoms: _373  and  _375
REMARK  151  A    between atoms: _375  and  _376
REMARK  152  A    between atoms: _375  and  _378
REMARK  153  A    between atoms: _378  and  _379
REMARK  154  A    between atoms: _382  and  _384
REMARK  155  A    between atoms: _384  and  _385
REMARK  156  A    between atoms: _384  and  _387
REMARK  157  A    between atoms: _387  and  _388
REMARK  158  A    between atoms: _388  and  _389
REMARK  159  A    between atoms: _389  and  _390
REMARK  160  A    between atoms: _390  and  _391
REMARK  161  A    between atoms: _395  and  _397
REMARK  162  A    between atoms: _397  and  _398
REMARK  163  A    between atoms: _397  and  _400
REMARK  164  A    between atoms: _400  and  _401
REMARK  165  A    between atoms: _401  and  _402
REMARK  166  A    between atoms: _404  and  _406
REMARK  167  A    between atoms: _406  and  _407
REMARK  168  A    between atoms: _406  and  _409
REMARK  169  A    between atoms: _409  and  _410
REMARK  170  A    between atoms: _413  and  _415
REMARK  171  A    between atoms: _415  and  _416
REMARK  172  A    between atoms: _418  and  _420
REMARK  173  A    between atoms: _420  and  _421
REMARK  174  A    between atoms: _423  and  _425
REMARK  175  A    between atoms: _425  and  _426
REMARK  176  A    between atoms: _425  and  _428
REMARK  177  A    between atoms: _428  and  _429
REMARK  178  A    between atoms: _432  and  _434
REMARK  179  A    between atoms: _434  and  _435
REMARK  180  A    between atoms: _437  and  _439
REMARK  181  A    between atoms: _439  and  _440
REMARK  182  A    between atoms: _442  and  _444
REMARK  183  A    between atoms: _444  and  _445
REMARK  184  A    between atoms: _444  and  _447
REMARK  185  A    between atoms: _447  and  _448
REMARK  186  A    between atoms: _454  and  _456
REMARK  187  A    between atoms: _456  and  _457
REMARK  188  A    between atoms: _456  and  _459
REMARK  189  A    between atoms: _459  and  _460
REMARK  190  A    between atoms: _463  and  _465
REMARK  191  A    between atoms: _465  and  _466
REMARK  192  A    between atoms: _465  and  _468
REMARK  193  A    between atoms: _471  and  _473
REMARK  194  A    between atoms: _473  and  _474
REMARK  195  A    between atoms: _473  and  _476
REMARK  196  A    between atoms: _476  and  _477
REMARK  197  A    between atoms: _480  and  _482
REMARK  198  A    between atoms: _482  and  _483
REMARK  199  A    between atoms: _482  and  _485
REMARK  200  A    between atoms: _485  and  _486
REMARK  201  A    between atoms: _490  and  _491
REMARK  202  A    between atoms: _496  and  _498
REMARK  203  A    between atoms: _498  and  _499
REMARK  204  A    between atoms: _498  and  _501
REMARK  205  A    between atoms: _504  and  _506
REMARK  206  A    between atoms: _506  and  _507
REMARK  207  A    between atoms: _506  and  _509
REMARK  208  A    between atoms: _509  and  _510
REMARK  209  A    between atoms: _515  and  _517
REMARK  210  A    between atoms: _517  and  _518
REMARK  211  A    between atoms: _517  and  _520
REMARK  212  A    between atoms: _520  and  _521
REMARK  213  A    between atoms: _524  and  _526
REMARK  214  A    between atoms: _526  and  _527
REMARK  215  A    between atoms: _526  and  _529
REMARK  216  A    between atoms: _529  and  _530
REMARK  217  A    between atoms: _533  and  _535
REMARK  218  A    between atoms: _535  and  _536
REMARK  219  A    between atoms: _538  and  _540
REMARK  220  A    between atoms: _540  and  _541
REMARK  221  A    between atoms: _540  and  _543
REMARK  222  A    between atoms: _543  and  _544
REMARK  223  A    between atoms: _544  and  _545
REMARK  224  A    between atoms: _545  and  _546
REMARK                            x       y       z     vdW  Elec       q    Type
REMARK                         _______ _______ _______ _____ _____    ______ ____
ROOT
ATOM      1  O   HOH     1      -3.089  14.231  18.550  0.00  0.00    +0.000 OA
ENDROOT
TORSDOF 0
REMARK  Name = ../refined-set-2016/2q64/2q64_pocket.pdb
REMARK  224 active torsions:
REMARK  status: ('A' for Active; 'I' for Inactive)
REMARK    1  A    between atoms: _1  and  _3
REMARK    2  A    between atoms: _3  and  _4
REMARK    3  A    between atoms: _3  and  _6
REMARK    4  A    between atoms: _6  and  _7
REMARK    5  A    between atoms: _7  and  _8
REMARK    6  A    between atoms: _8  and  _9
REMARK    7  A    between atoms: _18  and  _20
REMARK    8  A    between atoms: _20  and  _21
REMARK    9  A    between atoms: _20  and  _23
REMARK   10  A    between atoms: _23  and  _24
REMARK   11  A    between atoms: _27  and  _29
REMARK   12  A    between atoms: _29  and  _30
REMARK   13  A    between atoms: _29  and  _32
REMARK   14  A    between atoms: _32  and  _33
REMARK   15  A    between atoms: _36  and  _38
REMARK   16  A    between atoms: _38  and  _39
REMARK   17  A    between atoms: _38  and  _41
REMARK   18  A    between atoms: _41  and  _42
REMARK   19  A    between atoms: _45  and  _47
REMARK   20  A    between atoms: _47  and  _48
REMARK   21  A    between atoms: _47  and  _50
REMARK   22  A    between atoms: _50  and  _51
REMARK   23  A    between atoms: _54  and  _56
REMARK   24  A    between atoms: _56  and  _57
REMARK   25  A    between atoms: _59  and  _61
REMARK   26  A    between atoms: _61  and  _62
REMARK   27  A    between atoms: _65  and  _67
REMARK   28  A    between atoms: _67  and  _68
REMARK   29  A    between atoms: _67  and  _70
REMARK   30  A    between atoms: _70  and  _71
REMARK   31  A    between atoms: _74  and  _76
REMARK   32  A    between atoms: _76  and  _77
REMARK   33  A    between atoms: _76  and  _79
REMARK   34  A    between atoms: _79  and  _80
REMARK   35  A    between atoms: _85  and  _87
REMARK   36  A    between atoms: _87  and  _88
REMARK   37  A    between atoms: _87  and  _90
REMARK   38  A    between atoms: _90  and  _91
REMARK   39  A    between atoms: _94  and  _96
REMARK   40  A    between atoms: _96  and  _97
REMARK   41  A    between atoms: _96  and  _99
REMARK   42  A    between atoms: _102  and  _104
REMARK   43  A    between atoms: _104  and  _105
REMARK   44  A    between atoms: _104  and  _107
REMARK   45  A    between atoms: _107  and  _108
REMARK   46  A    between atoms: _108  and  _109
REMARK   47  A    between atoms: _109  and  _110
REMARK   48  A    between atoms: _110  and  _111
REMARK   49  A    between atoms: _115  and  _117
REMARK   50  A    between atoms: _117  and  _118
REMARK   51  A    between atoms: _117  and  _120
REMARK   52  A    between atoms: _120  and  _121
REMARK   53  A    between atoms: _121  and  _122
REMARK   54  A    between atoms: _124  and  _126
REMARK   55  A    between atoms: _126  and  _127
REMARK   56  A    between atoms: _126  and  _129
REMARK   57  A    between atoms: _129  and  _130
REMARK   58  A    between atoms: _133  and  _135
REMARK   59  A    between atoms: _135  and  _136
REMARK   60  A    between atoms: _138  and  _140
REMARK   61  A    between atoms: _140  and  _141
REMARK   62  A    between atoms: _145  and  _146
REMARK   63  A    between atoms: _145  and  _148
REMARK   64  A    between atoms: _148  and  _149
REMARK   65  A    between atoms: _152  and  _154
REMARK   66  A    between atoms: _154  and  _155
REMARK   67  A    between atoms: _157  and  _159
REMARK   68  A    between atoms: _159  and  _160
REMARK   69  A    between atoms: _162  and  _164
REMARK   70  A    between atoms: _164  and  _165
REMARK   71  A    between atoms: _164  and  _167
REMARK   72  A    between atoms: _167  and  _168
REMARK   73  A    between atoms: _171  and  _173
REMARK   74  A    between atoms: _173  and  _174
REMARK   75  A    between atoms: _173  and  _176
REMARK   76  A    between atoms: _179  and  _181
REMARK   77  A    between atoms: _181  and  _182
REMARK   78  A    between atoms: _181  and  _184
REMARK   79  A    between atoms: _184  and  _185
REMARK   80  A    between atoms: _189  and  _190
REMARK   81  A    between atoms: _195  and  _197
REMARK   82  A    between atoms: _197  and  _198
REMARK   83  A    between atoms: _197  and  _200
REMARK   84  A    between atoms: _200  and  _201
REMARK   85  A    between atoms: _205  and  _206
REMARK   86  A    between atoms: _211  and  _213
REMARK   87  A    between atoms: _213  and  _214
REMARK   88  A    between atoms: _213  and  _216
REMARK   89  A    between atoms: _219  and  _221
REMARK   90  A    between atoms: _221  and  _222
REMARK   91  A    between atoms: _221  and  _224
REMARK   92  A    between atoms: _224  and  _225
REMARK   93  A    between atoms: _230  and  _232
REMARK   94  A    between atoms: _232  and  _233
REMARK   95  A    between atoms: _232  and  _235
REMARK   96  A    between atoms: _235  and  _236
REMARK   97  A    between atoms: _239  and  _241
REMARK   98  A    between atoms: _241  and  _242
REMARK   99  A    between atoms: _244  and  _246
REMARK  100  A    between atoms: _246  and  _247
REMARK  101  A    between atoms: _246  and  _249
REMARK  102  A    between atoms: _249  and  _250
REMARK  103  A    between atoms: _250  and  _251
REMARK  104  A    between atoms: _251  and  _252
REMARK  105  A    between atoms: _261  and  _263
REMARK  106  A    between atoms: _263  and  _264
REMARK  107  A    between atoms: _263  and  _266
REMARK  108  A    between atoms: _266  and  _267
REMARK  109  A    between atoms: _272  and  _274
REMARK  110  A    between atoms: _274  and  _275
REMARK  111  A    between atoms: _274  and  _277
REMARK  112  A    between atoms: _277  and  _278
REMARK  113  A    between atoms: _278  and  _279
REMARK  114  A    between atoms: _279  and  _280
REMARK  115  A    between atoms: _289  and  _291
REMARK  116  A    between atoms: _291  and  _292
REMARK  117  A    between atoms: _291  and  _294
REMARK  118  A    between atoms: _294  and  _295
REMARK  119  A    between atoms: _298  and  _300
REMARK  120  A    between atoms: _300  and  _301
REMARK  121  A    between atoms: _300  and  _303
REMARK  122  A    between atoms: _303  and  _304
REMARK  123  A    between atoms: _307  and  _309
REMARK  124  A    between atoms: _309  and  _310
REMARK  125  A    between atoms: _309  and  _312
REMARK  126  A    between atoms: _312  and  _313
REMARK  127  A    between atoms: _316  and  _318
REMARK  128  A    between atoms: _318  and  _319
REMARK  129  A    between atoms: _318  and  _321
REMARK  130  A    between atoms: _321  and  _322
REMARK  131  A    between atoms: _325  and  _327
REMARK  132  A    between atoms: _327  and  _328
REMARK  133  A    between atoms: _330  and  _332
REMARK  134  A    between atoms: _332  and  _333
REMARK  135  A    between atoms: _336  and  _338
REMARK  136  A    between atoms: _338  and  _339
REMARK  137  A    between atoms: _338  and  _341
REMARK  138  A    between atoms: _341  and  _342
REMARK  139  A    between atoms: _345  and  _347
REMARK  140  A    between atoms: _347  and  _348
REMARK  141  A    between atoms: _347  and  _350
REMARK  142  A    between atoms: _350  and  _351
REMARK  143  A    between atoms: _356  and  _358
REMARK  144  A    between atoms: _358  and  _359
REMARK  145  A    between atoms: _358  and  _361
REMARK  146  A    between atoms: _361  and  _362
REMARK  147  A    between atoms: _365  and  _367
REMARK  148  A    between atoms: _367  and  _368
REMARK  149  A    between atoms: _367  and  _370
REMARK  150  A    between atoms: _373  and  _375
REMARK  151  A    between atoms: _375  and  _376
REMARK  152  A    between atoms: _375  and  _378
REMARK  153  A    between atoms: _378  and  _379
REMARK  154  A    between atoms: _382  and  _384
REMARK  155  A    between atoms: _384  and  _385
REMARK  156  A    between atoms: _384  and  _387
REMARK  157  A    between atoms: _387  and  _388
REMARK  158  A    between atoms: _388  and  _389
REMARK  159  A    between atoms: _389  and  _390
REMARK  160  A    between atoms: _390  and  _391
REMARK  161  A    between atoms: _395  and  _397
REMARK  162  A    between atoms: _397  and  _398
REMARK  163  A    between atoms: _397  and  _400
REMARK  164  A    between atoms: _400  and  _401
REMARK  165  A    between atoms: _401  and  _402
REMARK  166  A    between atoms: _404  and  _406
REMARK  167  A    between atoms: _406  and  _407
REMARK  168  A    between atoms: _406  and  _409
REMARK  169  A    between atoms: _409  and  _410
REMARK  170  A    between atoms: _413  and  _415
REMARK  171  A    between atoms: _415  and  _416
REMARK  172  A    between atoms: _418  and  _420
REMARK  173  A    between atoms: _420  and  _421
REMARK  174  A    between atoms: _423  and  _425
REMARK  175  A    between atoms: _425  and  _426
REMARK  176  A    between atoms: _425  and  _428
REMARK  177  A    between atoms: _428  and  _429
REMARK  178  A    between atoms: _432  and  _434
REMARK  179  A    between atoms: _434  and  _435
REMARK  180  A    between atoms: _437  and  _439
REMARK  181  A    between atoms: _439  and  _440
REMARK  182  A    between atoms: _442  and  _444
REMARK  183  A    between atoms: _444  and  _445
REMARK  184  A    between atoms: _444  and  _447
REMARK  185  A    between atoms: _447  and  _448
REMARK  186  A    between atoms: _454  and  _456
REMARK  187  A    between atoms: _456  and  _457
REMARK  188  A    between atoms: _456  and  _459
REMARK  189  A    between atoms: _459  and  _460
REMARK  190  A    between atoms: _463  and  _465
REMARK  191  A    between atoms: _465  and  _466
REMARK  192  A    between atoms: _465  and  _468
REMARK  193  A    between atoms: _471  and  _473
REMARK  194  A    between atoms: _473  and  _474
REMARK  195  A    between atoms: _473  and  _476
REMARK  196  A    between atoms: _476  and  _477
REMARK  197  A    between atoms: _480  and  _482
REMARK  198  A    between atoms: _482  and  _483
REMARK  199  A    between atoms: _482  and  _485
REMARK  200  A    between atoms: _485  and  _486
REMARK  201  A    between atoms: _490  and  _491
REMARK  202  A    between atoms: _496  and  _498
REMARK  203  A    between atoms: _498  and  _499
REMARK  204  A    between atoms: _498  and  _501
REMARK  205  A    between atoms: _504  and  _506
REMARK  206  A    between atoms: _506  and  _507
REMARK  207  A    between atoms: _506  and  _509
REMARK  208  A    between atoms: _509  and  _510
REMARK  209  A    between atoms: _515  and  _517
REMARK  210  A    between atoms: _517  and  _518
REMARK  211  A    between atoms: _517  and  _520
REMARK  212  A    between atoms: _520  and  _521
REMARK  213  A    between atoms: _524  and  _526
REMARK  214  A    between atoms: _526  and  _527
REMARK  215  A    between atoms: _526  and  _529
REMARK  216  A    between atoms: _529  and  _530
REMARK  217  A    between atoms: _533  and  _535
REMARK  218  A    between atoms: _535  and  _536
REMARK  219  A    between atoms: _538  and  _540
REMARK  220  A    between atoms: _540  and  _541
REMARK  221  A    between atoms: _540  and  _543
REMARK  222  A    between atoms: _543  and  _544
REMARK  223  A    between atoms: _544  and  _545
REMARK  224  A    between atoms: _545  and  _546
REMARK                            x       y       z     vdW  Elec       q    Type
REMARK                         _______ _______ _______ _____ _____    ______ ____
ROOT
ATOM      1  O   HOH     1      -8.842  22.825  15.903  0.00  0.00    +0.000 OA
ENDROOT
TORSDOF 0
REMARK  Name = ../refined-set-2016/2q64/2q64_pocket.pdb
REMARK  224 active torsions:
REMARK  status: ('A' for Active; 'I' for Inactive)
REMARK    1  A    between atoms: _1  and  _3
REMARK    2  A    between atoms: _3  and  _4
REMARK    3  A    between atoms: _3  and  _6
REMARK    4  A    between atoms: _6  and  _7
REMARK    5  A    between atoms: _7  and  _8
REMARK    6  A    between atoms: _8  and  _9
REMARK    7  A    between atoms: _18  and  _20
REMARK    8  A    between atoms: _20  and  _21
REMARK    9  A    between atoms: _20  and  _23
REMARK   10  A    between atoms: _23  and  _24
REMARK   11  A    between atoms: _27  and  _29
REMARK   12  A    between atoms: _29  and  _30
REMARK   13  A    between atoms: _29  and  _32
REMARK   14  A    between atoms: _32  and  _33
REMARK   15  A    between atoms: _36  and  _38
REMARK   16  A    between atoms: _38  and  _39
REMARK   17  A    between atoms: _38  and  _41
REMARK   18  A    between atoms: _41  and  _42
REMARK   19  A    between atoms: _45  and  _47
REMARK   20  A    between atoms: _47  and  _48
REMARK   21  A    between atoms: _47  and  _50
REMARK   22  A    between atoms: _50  and  _51
REMARK   23  A    between atoms: _54  and  _56
REMARK   24  A    between atoms: _56  and  _57
REMARK   25  A    between atoms: _59  and  _61
REMARK   26  A    between atoms: _61  and  _62
REMARK   27  A    between atoms: _65  and  _67
REMARK   28  A    between atoms: _67  and  _68
REMARK   29  A    between atoms: _67  and  _70
REMARK   30  A    between atoms: _70  and  _71
REMARK   31  A    between atoms: _74  and  _76
REMARK   32  A    between atoms: _76  and  _77
REMARK   33  A    between atoms: _76  and  _79
REMARK   34  A    between atoms: _79  and  _80
REMARK   35  A    between atoms: _85  and  _87
REMARK   36  A    between atoms: _87  and  _88
REMARK   37  A    between atoms: _87  and  _90
REMARK   38  A    between atoms: _90  and  _91
REMARK   39  A    between atoms: _94  and  _96
REMARK   40  A    between atoms: _96  and  _97
REMARK   41  A    between atoms: _96  and  _99
REMARK   42  A    between atoms: _102  and  _104
REMARK   43  A    between atoms: _104  and  _105
REMARK   44  A    between atoms: _104  and  _107
REMARK   45  A    between atoms: _107  and  _108
REMARK   46  A    between atoms: _108  and  _109
REMARK   47  A    between atoms: _109  and  _110
REMARK   48  A    between atoms: _110  and  _111
REMARK   49  A    between atoms: _115  and  _117
REMARK   50  A    between atoms: _117  and  _118
REMARK   51  A    between atoms: _117  and  _120
REMARK   52  A    between atoms: _120  and  _121
REMARK   53  A    between atoms: _121  and  _122
REMARK   54  A    between atoms: _124  and  _126
REMARK   55  A    between atoms: _126  and  _127
REMARK   56  A    between atoms: _126  and  _129
REMARK   57  A    between atoms: _129  and  _130
REMARK   58  A    between atoms: _133  and  _135
REMARK   59  A    between atoms: _135  and  _136
REMARK   60  A    between atoms: _138  and  _140
REMARK   61  A    between atoms: _140  and  _141
REMARK   62  A    between atoms: _145  and  _146
REMARK   63  A    between atoms: _145  and  _148
REMARK   64  A    between atoms: _148  and  _149
REMARK   65  A    between atoms: _152  and  _154
REMARK   66  A    between atoms: _154  and  _155
REMARK   67  A    between atoms: _157  and  _159
REMARK   68  A    between atoms: _159  and  _160
REMARK   69  A    between atoms: _162  and  _164
REMARK   70  A    between atoms: _164  and  _165
REMARK   71  A    between atoms: _164  and  _167
REMARK   72  A    between atoms: _167  and  _168
REMARK   73  A    between atoms: _171  and  _173
REMARK   74  A    between atoms: _173  and  _174
REMARK   75  A    between atoms: _173  and  _176
REMARK   76  A    between atoms: _179  and  _181
REMARK   77  A    between atoms: _181  and  _182
REMARK   78  A    between atoms: _181  and  _184
REMARK   79  A    between atoms: _184  and  _185
REMARK   80  A    between atoms: _189  and  _190
REMARK   81  A    between atoms: _195  and  _197
REMARK   82  A    between atoms: _197  and  _198
REMARK   83  A    between atoms: _197  and  _200
REMARK   84  A    between atoms: _200  and  _201
REMARK   85  A    between atoms: _205  and  _206
REMARK   86  A    between atoms: _211  and  _213
REMARK   87  A    between atoms: _213  and  _214
REMARK   88  A    between atoms: _213  and  _216
REMARK   89  A    between atoms: _219  and  _221
REMARK   90  A    between atoms: _221  and  _222
REMARK   91  A    between atoms: _221  and  _224
REMARK   92  A    between atoms: _224  and  _225
REMARK   93  A    between atoms: _230  and  _232
REMARK   94  A    between atoms: _232  and  _233
REMARK   95  A    between atoms: _232  and  _235
REMARK   96  A    between atoms: _235  and  _236
REMARK   97  A    between atoms: _239  and  _241
REMARK   98  A    between atoms: _241  and  _242
REMARK   99  A    between atoms: _244  and  _246
REMARK  100  A    between atoms: _246  and  _247
REMARK  101  A    between atoms: _246  and  _249
REMARK  102  A    between atoms: _249  and  _250
REMARK  103  A    between atoms: _250  and  _251
REMARK  104  A    between atoms: _251  and  _252
REMARK  105  A    between atoms: _261  and  _263
REMARK  106  A    between atoms: _263  and  _264
REMARK  107  A    between atoms: _263  and  _266
REMARK  108  A    between atoms: _266  and  _267
REMARK  109  A    between atoms: _272  and  _274
REMARK  110  A    between atoms: _274  and  _275
REMARK  111  A    between atoms: _274  and  _277
REMARK  112  A    between atoms: _277  and  _278
REMARK  113  A    between atoms: _278  and  _279
REMARK  114  A    between atoms: _279  and  _280
REMARK  115  A    between atoms: _289  and  _291
REMARK  116  A    between atoms: _291  and  _292
REMARK  117  A    between atoms: _291  and  _294
REMARK  118  A    between atoms: _294  and  _295
REMARK  119  A    between atoms: _298  and  _300
REMARK  120  A    between atoms: _300  and  _301
REMARK  121  A    between atoms: _300  and  _303
REMARK  122  A    between atoms: _303  and  _304
REMARK  123  A    between atoms: _307  and  _309
REMARK  124  A    between atoms: _309  and  _310
REMARK  125  A    between atoms: _309  and  _312
REMARK  126  A    between atoms: _312  and  _313
REMARK  127  A    between atoms: _316  and  _318
REMARK  128  A    between atoms: _318  and  _319
REMARK  129  A    between atoms: _318  and  _321
REMARK  130  A    between atoms: _321  and  _322
REMARK  131  A    between atoms: _325  and  _327
REMARK  132  A    between atoms: _327  and  _328
REMARK  133  A    between atoms: _330  and  _332
REMARK  134  A    between atoms: _332  and  _333
REMARK  135  A    between atoms: _336  and  _338
REMARK  136  A    between atoms: _338  and  _339
REMARK  137  A    between atoms: _338  and  _341
REMARK  138  A    between atoms: _341  and  _342
REMARK  139  A    between atoms: _345  and  _347
REMARK  140  A    between atoms: _347  and  _348
REMARK  141  A    between atoms: _347  and  _350
REMARK  142  A    between atoms: _350  and  _351
REMARK  143  A    between atoms: _356  and  _358
REMARK  144  A    between atoms: _358  and  _359
REMARK  145  A    between atoms: _358  and  _361
REMARK  146  A    between atoms: _361  and  _362
REMARK  147  A    between atoms: _365  and  _367
REMARK  148  A    between atoms: _367  and  _368
REMARK  149  A    between atoms: _367  and  _370
REMARK  150  A    between atoms: _373  and  _375
REMARK  151  A    between atoms: _375  and  _376
REMARK  152  A    between atoms: _375  and  _378
REMARK  153  A    between atoms: _378  and  _379
REMARK  154  A    between atoms: _382  and  _384
REMARK  155  A    between atoms: _384  and  _385
REMARK  156  A    between atoms: _384  and  _387
REMARK  157  A    between atoms: _387  and  _388
REMARK  158  A    between atoms: _388  and  _389
REMARK  159  A    between atoms: _389  and  _390
REMARK  160  A    between atoms: _390  and  _391
REMARK  161  A    between atoms: _395  and  _397
REMARK  162  A    between atoms: _397  and  _398
REMARK  163  A    between atoms: _397  and  _400
REMARK  164  A    between atoms: _400  and  _401
REMARK  165  A    between atoms: _401  and  _402
REMARK  166  A    between atoms: _404  and  _406
REMARK  167  A    between atoms: _406  and  _407
REMARK  168  A    between atoms: _406  and  _409
REMARK  169  A    between atoms: _409  and  _410
REMARK  170  A    between atoms: _413  and  _415
REMARK  171  A    between atoms: _415  and  _416
REMARK  172  A    between atoms: _418  and  _420
REMARK  173  A    between atoms: _420  and  _421
REMARK  174  A    between atoms: _423  and  _425
REMARK  175  A    between atoms: _425  and  _426
REMARK  176  A    between atoms: _425  and  _428
REMARK  177  A    between atoms: _428  and  _429
REMARK  178  A    between atoms: _432  and  _434
REMARK  179  A    between atoms: _434  and  _435
REMARK  180  A    between atoms: _437  and  _439
REMARK  181  A    between atoms: _439  and  _440
REMARK  182  A    between atoms: _442  and  _444
REMARK  183  A    between atoms: _444  and  _445
REMARK  184  A    between atoms: _444  and  _447
REMARK  185  A    between atoms: _447  and  _448
REMARK  186  A    between atoms: _454  and  _456
REMARK  187  A    between atoms: _456  and  _457
REMARK  188  A    between atoms: _456  and  _459
REMARK  189  A    between atoms: _459  and  _460
REMARK  190  A    between atoms: _463  and  _465
REMARK  191  A    between atoms: _465  and  _466
REMARK  192  A    between atoms: _465  and  _468
REMARK  193  A    between atoms: _471  and  _473
REMARK  194  A    between atoms: _473  and  _474
REMARK  195  A    between atoms: _473  and  _476
REMARK  196  A    between atoms: _476  and  _477
REMARK  197  A    between atoms: _480  and  _482
REMARK  198  A    between atoms: _482  and  _483
REMARK  199  A    between atoms: _482  and  _485
REMARK  200  A    between atoms: _485  and  _486
REMARK  201  A    between atoms: _490  and  _491
REMARK  202  A    between atoms: _496  and  _498
REMARK  203  A    between atoms: _498  and  _499
REMARK  204  A    between atoms: _498  and  _501
REMARK  205  A    between atoms: _504  and  _506
REMARK  206  A    between atoms: _506  and  _507
REMARK  207  A    between atoms: _506  and  _509
REMARK  208  A    between atoms: _509  and  _510
REMARK  209  A    between atoms: _515  and  _517
REMARK  210  A    between atoms: _517  and  _518
REMARK  211  A    between atoms: _517  and  _520
REMARK  212  A    between atoms: _520  and  _521
REMARK  213  A    between atoms: _524  and  _526
REMARK  214  A    between atoms: _526  and  _527
REMARK  215  A    between atoms: _526  and  _529
REMARK  216  A    between atoms: _529  and  _530
REMARK  217  A    between atoms: _533  and  _535
REMARK  218  A    between atoms: _535  and  _536
REMARK  219  A    between atoms: _538  and  _540
REMARK  220  A    between atoms: _540  and  _541
REMARK  221  A    between atoms: _540  and  _543
REMARK  222  A    between atoms: _543  and  _544
REMARK  223  A    between atoms: _544  and  _545
REMARK  224  A    between atoms: _545  and  _546
REMARK                            x       y       z     vdW  Elec       q    Type
REMARK                         _______ _______ _______ _____ _____    ______ ____
ROOT
ATOM      1  O   HOH     1      -6.303  21.336  22.749  0.00  0.00    +0.000 OA
ENDROOT
TORSDOF 0
REMARK  Name = ../refined-set-2016/2q64/2q64_pocket.pdb
REMARK  224 active torsions:
REMARK  status: ('A' for Active; 'I' for Inactive)
REMARK    1  A    between atoms: _1  and  _3
REMARK    2  A    between atoms: _3  and  _4
REMARK    3  A    between atoms: _3  and  _6
REMARK    4  A    between atoms: _6  and  _7
REMARK    5  A    between atoms: _7  and  _8
REMARK    6  A    between atoms: _8  and  _9
REMARK    7  A    between atoms: _18  and  _20
REMARK    8  A    between atoms: _20  and  _21
REMARK    9  A    between atoms: _20  and  _23
REMARK   10  A    between atoms: _23  and  _24
REMARK   11  A    between atoms: _27  and  _29
REMARK   12  A    between atoms: _29  and  _30
REMARK   13  A    between atoms: _29  and  _32
REMARK   14  A    between atoms: _32  and  _33
REMARK   15  A    between atoms: _36  and  _38
REMARK   16  A    between atoms: _38  and  _39
REMARK   17  A    between atoms: _38  and  _41
REMARK   18  A    between atoms: _41  and  _42
REMARK   19  A    between atoms: _45  and  _47
REMARK   20  A    between atoms: _47  and  _48
REMARK   21  A    between atoms: _47  and  _50
REMARK   22  A    between atoms: _50  and  _51
REMARK   23  A    between atoms: _54  and  _56
REMARK   24  A    between atoms: _56  and  _57
REMARK   25  A    between atoms: _59  and  _61
REMARK   26  A    between atoms: _61  and  _62
REMARK   27  A    between atoms: _65  and  _67
REMARK   28  A    between atoms: _67  and  _68
REMARK   29  A    between atoms: _67  and  _70
REMARK   30  A    between atoms: _70  and  _71
REMARK   31  A    between atoms: _74  and  _76
REMARK   32  A    between atoms: _76  and  _77
REMARK   33  A    between atoms: _76  and  _79
REMARK   34  A    between atoms: _79  and  _80
REMARK   35  A    between atoms: _85  and  _87
REMARK   36  A    between atoms: _87  and  _88
REMARK   37  A    between atoms: _87  and  _90
REMARK   38  A    between atoms: _90  and  _91
REMARK   39  A    between atoms: _94  and  _96
REMARK   40  A    between atoms: _96  and  _97
REMARK   41  A    between atoms: _96  and  _99
REMARK   42  A    between atoms: _102  and  _104
REMARK   43  A    between atoms: _104  and  _105
REMARK   44  A    between atoms: _104  and  _107
REMARK   45  A    between atoms: _107  and  _108
REMARK   46  A    between atoms: _108  and  _109
REMARK   47  A    between atoms: _109  and  _110
REMARK   48  A    between atoms: _110  and  _111
REMARK   49  A    between atoms: _115  and  _117
REMARK   50  A    between atoms: _117  and  _118
REMARK   51  A    between atoms: _117  and  _120
REMARK   52  A    between atoms: _120  and  _121
REMARK   53  A    between atoms: _121  and  _122
REMARK   54  A    between atoms: _124  and  _126
REMARK   55  A    between atoms: _126  and  _127
REMARK   56  A    between atoms: _126  and  _129
REMARK   57  A    between atoms: _129  and  _130
REMARK   58  A    between atoms: _133  and  _135
REMARK   59  A    between atoms: _135  and  _136
REMARK   60  A    between atoms: _138  and  _140
REMARK   61  A    between atoms: _140  and  _141
REMARK   62  A    between atoms: _145  and  _146
REMARK   63  A    between atoms: _145  and  _148
REMARK   64  A    between atoms: _148  and  _149
REMARK   65  A    between atoms: _152  and  _154
REMARK   66  A    between atoms: _154  and  _155
REMARK   67  A    between atoms: _157  and  _159
REMARK   68  A    between atoms: _159  and  _160
REMARK   69  A    between atoms: _162  and  _164
REMARK   70  A    between atoms: _164  and  _165
REMARK   71  A    between atoms: _164  and  _167
REMARK   72  A    between atoms: _167  and  _168
REMARK   73  A    between atoms: _171  and  _173
REMARK   74  A    between atoms: _173  and  _174
REMARK   75  A    between atoms: _173  and  _176
REMARK   76  A    between atoms: _179  and  _181
REMARK   77  A    between atoms: _181  and  _182
REMARK   78  A    between atoms: _181  and  _184
REMARK   79  A    between atoms: _184  and  _185
REMARK   80  A    between atoms: _189  and  _190
REMARK   81  A    between atoms: _195  and  _197
REMARK   82  A    between atoms: _197  and  _198
REMARK   83  A    between atoms: _197  and  _200
REMARK   84  A    between atoms: _200  and  _201
REMARK   85  A    between atoms: _205  and  _206
REMARK   86  A    between atoms: _211  and  _213
REMARK   87  A    between atoms: _213  and  _214
REMARK   88  A    between atoms: _213  and  _216
REMARK   89  A    between atoms: _219  and  _221
REMARK   90  A    between atoms: _221  and  _222
REMARK   91  A    between atoms: _221  and  _224
REMARK   92  A    between atoms: _224  and  _225
REMARK   93  A    between atoms: _230  and  _232
REMARK   94  A    between atoms: _232  and  _233
REMARK   95  A    between atoms: _232  and  _235
REMARK   96  A    between atoms: _235  and  _236
REMARK   97  A    between atoms: _239  and  _241
REMARK   98  A    between atoms: _241  and  _242
REMARK   99  A    between atoms: _244  and  _246
REMARK  100  A    between atoms: _246  and  _247
REMARK  101  A    between atoms: _246  and  _249
REMARK  102  A    between atoms: _249  and  _250
REMARK  103  A    between atoms: _250  and  _251
REMARK  104  A    between atoms: _251  and  _252
REMARK  105  A    between atoms: _261  and  _263
REMARK  106  A    between atoms: _263  and  _264
REMARK  107  A    between atoms: _263  and  _266
REMARK  108  A    between atoms: _266  and  _267
REMARK  109  A    between atoms: _272  and  _274
REMARK  110  A    between atoms: _274  and  _275
REMARK  111  A    between atoms: _274  and  _277
REMARK  112  A    between atoms: _277  and  _278
REMARK  113  A    between atoms: _278  and  _279
REMARK  114  A    between atoms: _279  and  _280
REMARK  115  A    between atoms: _289  and  _291
REMARK  116  A    between atoms: _291  and  _292
REMARK  117  A    between atoms: _291  and  _294
REMARK  118  A    between atoms: _294  and  _295
REMARK  119  A    between atoms: _298  and  _300
REMARK  120  A    between atoms: _300  and  _301
REMARK  121  A    between atoms: _300  and  _303
REMARK  122  A    between atoms: _303  and  _304
REMARK  123  A    between atoms: _307  and  _309
REMARK  124  A    between atoms: _309  and  _310
REMARK  125  A    between atoms: _309  and  _312
REMARK  126  A    between atoms: _312  and  _313
REMARK  127  A    between atoms: _316  and  _318
REMARK  128  A    between atoms: _318  and  _319
REMARK  129  A    between atoms: _318  and  _321
REMARK  130  A    between atoms: _321  and  _322
REMARK  131  A    between atoms: _325  and  _327
REMARK  132  A    between atoms: _327  and  _328
REMARK  133  A    between atoms: _330  and  _332
REMARK  134  A    between atoms: _332  and  _333
REMARK  135  A    between atoms: _336  and  _338
REMARK  136  A    between atoms: _338  and  _339
REMARK  137  A    between atoms: _338  and  _341
REMARK  138  A    between atoms: _341  and  _342
REMARK  139  A    between atoms: _345  and  _347
REMARK  140  A    between atoms: _347  and  _348
REMARK  141  A    between atoms: _347  and  _350
REMARK  142  A    between atoms: _350  and  _351
REMARK  143  A    between atoms: _356  and  _358
REMARK  144  A    between atoms: _358  and  _359
REMARK  145  A    between atoms: _358  and  _361
REMARK  146  A    between atoms: _361  and  _362
REMARK  147  A    between atoms: _365  and  _367
REMARK  148  A    between atoms: _367  and  _368
REMARK  149  A    between atoms: _367  and  _370
REMARK  150  A    between atoms: _373  and  _375
REMARK  151  A    between atoms: _375  and  _376
REMARK  152  A    between atoms: _375  and  _378
REMARK  153  A    between atoms: _378  and  _379
REMARK  154  A    between atoms: _382  and  _384
REMARK  155  A    between atoms: _384  and  _385
REMARK  156  A    between atoms: _384  and  _387
REMARK  157  A    between atoms: _387  and  _388
REMARK  158  A    between atoms: _388  and  _389
REMARK  159  A    between atoms: _389  and  _390
REMARK  160  A    between atoms: _390  and  _391
REMARK  161  A    between atoms: _395  and  _397
REMARK  162  A    between atoms: _397  and  _398
REMARK  163  A    between atoms: _397  and  _400
REMARK  164  A    between atoms: _400  and  _401
REMARK  165  A    between atoms: _401  and  _402
REMARK  166  A    between atoms: _404  and  _406
REMARK  167  A    between atoms: _406  and  _407
REMARK  168  A    between atoms: _406  and  _409
REMARK  169  A    between atoms: _409  and  _410
REMARK  170  A    between atoms: _413  and  _415
REMARK  171  A    between atoms: _415  and  _416
REMARK  172  A    between atoms: _418  and  _420
REMARK  173  A    between atoms: _420  and  _421
REMARK  174  A    between atoms: _423  and  _425
REMARK  175  A    between atoms: _425  and  _426
REMARK  176  A    between atoms: _425  and  _428
REMARK  177  A    between atoms: _428  and  _429
REMARK  178  A    between atoms: _432  and  _434
REMARK  179  A    between atoms: _434  and  _435
REMARK  180  A    between atoms: _437  and  _439
REMARK  181  A    between atoms: _439  and  _440
REMARK  182  A    between atoms: _442  and  _444
REMARK  183  A    between atoms: _444  and  _445
REMARK  184  A    between atoms: _444  and  _447
REMARK  185  A    between atoms: _447  and  _448
REMARK  186  A    between atoms: _454  and  _456
REMARK  187  A    between atoms: _456  and  _457
REMARK  188  A    between atoms: _456  and  _459
REMARK  189  A    between atoms: _459  and  _460
REMARK  190  A    between atoms: _463  and  _465
REMARK  191  A    between atoms: _465  and  _466
REMARK  192  A    between atoms: _465  and  _468
REMARK  193  A    between atoms: _471  and  _473
REMARK  194  A    between atoms: _473  and  _474
REMARK  195  A    between atoms: _473  and  _476
REMARK  196  A    between atoms: _476  and  _477
REMARK  197  A    between atoms: _480  and  _482
REMARK  198  A    between atoms: _482  and  _483
REMARK  199  A    between atoms: _482  and  _485
REMARK  200  A    between atoms: _485  and  _486
REMARK  201  A    between atoms: _490  and  _491
REMARK  202  A    between atoms: _496  and  _498
REMARK  203  A    between atoms: _498  and  _499
REMARK  204  A    between atoms: _498  and  _501
REMARK  205  A    between atoms: _504  and  _506
REMARK  206  A    between atoms: _506  and  _507
REMARK  207  A    between atoms: _506  and  _509
REMARK  208  A    between atoms: _509  and  _510
REMARK  209  A    between atoms: _515  and  _517
REMARK  210  A    between atoms: _517  and  _518
REMARK  211  A    between atoms: _517  and  _520
REMARK  212  A    between atoms: _520  and  _521
REMARK  213  A    between atoms: _524  and  _526
REMARK  214  A    between atoms: _526  and  _527
REMARK  215  A    between atoms: _526  and  _529
REMARK  216  A    between atoms: _529  and  _530
REMARK  217  A    between atoms: _533  and  _535
REMARK  218  A    between atoms: _535  and  _536
REMARK  219  A    between atoms: _538  and  _540
REMARK  220  A    between atoms: _540  and  _541
REMARK  221  A    between atoms: _540  and  _543
REMARK  222  A    between atoms: _543  and  _544
REMARK  223  A    between atoms: _544  and  _545
REMARK  224  A    between atoms: _545  and  _546
REMARK                            x       y       z     vdW  Elec       q    Type
REMARK                         _______ _______ _______ _____ _____    ______ ____
ROOT
ATOM      1  O   HOH     1     -10.155  18.607  12.964  0.00  0.00    +0.000 OA
ENDROOT
TORSDOF 0
REMARK  Name = ../refined-set-2016/2q64/2q64_pocket.pdb
REMARK  224 active torsions:
REMARK  status: ('A' for Active; 'I' for Inactive)
REMARK    1  A    between atoms: _1  and  _3
REMARK    2  A    between atoms: _3  and  _4
REMARK    3  A    between atoms: _3  and  _6
REMARK    4  A    between atoms: _6  and  _7
REMARK    5  A    between atoms: _7  and  _8
REMARK    6  A    between atoms: _8  and  _9
REMARK    7  A    between atoms: _18  and  _20
REMARK    8  A    between atoms: _20  and  _21
REMARK    9  A    between atoms: _20  and  _23
REMARK   10  A    between atoms: _23  and  _24
REMARK   11  A    between atoms: _27  and  _29
REMARK   12  A    between atoms: _29  and  _30
REMARK   13  A    between atoms: _29  and  _32
REMARK   14  A    between atoms: _32  and  _33
REMARK   15  A    between atoms: _36  and  _38
REMARK   16  A    between atoms: _38  and  _39
REMARK   17  A    between atoms: _38  and  _41
REMARK   18  A    between atoms: _41  and  _42
REMARK   19  A    between atoms: _45  and  _47
REMARK   20  A    between atoms: _47  and  _48
REMARK   21  A    between atoms: _47  and  _50
REMARK   22  A    between atoms: _50  and  _51
REMARK   23  A    between atoms: _54  and  _56
REMARK   24  A    between atoms: _56  and  _57
REMARK   25  A    between atoms: _59  and  _61
REMARK   26  A    between atoms: _61  and  _62
REMARK   27  A    between atoms: _65  and  _67
REMARK   28  A    between atoms: _67  and  _68
REMARK   29  A    between atoms: _67  and  _70
REMARK   30  A    between atoms: _70  and  _71
REMARK   31  A    between atoms: _74  and  _76
REMARK   32  A    between atoms: _76  and  _77
REMARK   33  A    between atoms: _76  and  _79
REMARK   34  A    between atoms: _79  and  _80
REMARK   35  A    between atoms: _85  and  _87
REMARK   36  A    between atoms: _87  and  _88
REMARK   37  A    between atoms: _87  and  _90
REMARK   38  A    between atoms: _90  and  _91
REMARK   39  A    between atoms: _94  and  _96
REMARK   40  A    between atoms: _96  and  _97
REMARK   41  A    between atoms: _96  and  _99
REMARK   42  A    between atoms: _102  and  _104
REMARK   43  A    between atoms: _104  and  _105
REMARK   44  A    between atoms: _104  and  _107
REMARK   45  A    between atoms: _107  and  _108
REMARK   46  A    between atoms: _108  and  _109
REMARK   47  A    between atoms: _109  and  _110
REMARK   48  A    between atoms: _110  and  _111
REMARK   49  A    between atoms: _115  and  _117
REMARK   50  A    between atoms: _117  and  _118
REMARK   51  A    between atoms: _117  and  _120
REMARK   52  A    between atoms: _120  and  _121
REMARK   53  A    between atoms: _121  and  _122
REMARK   54  A    between atoms: _124  and  _126
REMARK   55  A    between atoms: _126  and  _127
REMARK   56  A    between atoms: _126  and  _129
REMARK   57  A    between atoms: _129  and  _130
REMARK   58  A    between atoms: _133  and  _135
REMARK   59  A    between atoms: _135  and  _136
REMARK   60  A    between atoms: _138  and  _140
REMARK   61  A    between atoms: _140  and  _141
REMARK   62  A    between atoms: _145  and  _146
REMARK   63  A    between atoms: _145  and  _148
REMARK   64  A    between atoms: _148  and  _149
REMARK   65  A    between atoms: _152  and  _154
REMARK   66  A    between atoms: _154  and  _155
REMARK   67  A    between atoms: _157  and  _159
REMARK   68  A    between atoms: _159  and  _160
REMARK   69  A    between atoms: _162  and  _164
REMARK   70  A    between atoms: _164  and  _165
REMARK   71  A    between atoms: _164  and  _167
REMARK   72  A    between atoms: _167  and  _168
REMARK   73  A    between atoms: _171  and  _173
REMARK   74  A    between atoms: _173  and  _174
REMARK   75  A    between atoms: _173  and  _176
REMARK   76  A    between atoms: _179  and  _181
REMARK   77  A    between atoms: _181  and  _182
REMARK   78  A    between atoms: _181  and  _184
REMARK   79  A    between atoms: _184  and  _185
REMARK   80  A    between atoms: _189  and  _190
REMARK   81  A    between atoms: _195  and  _197
REMARK   82  A    between atoms: _197  and  _198
REMARK   83  A    between atoms: _197  and  _200
REMARK   84  A    between atoms: _200  and  _201
REMARK   85  A    between atoms: _205  and  _206
REMARK   86  A    between atoms: _211  and  _213
REMARK   87  A    between atoms: _213  and  _214
REMARK   88  A    between atoms: _213  and  _216
REMARK   89  A    between atoms: _219  and  _221
REMARK   90  A    between atoms: _221  and  _222
REMARK   91  A    between atoms: _221  and  _224
REMARK   92  A    between atoms: _224  and  _225
REMARK   93  A    between atoms: _230  and  _232
REMARK   94  A    between atoms: _232  and  _233
REMARK   95  A    between atoms: _232  and  _235
REMARK   96  A    between atoms: _235  and  _236
REMARK   97  A    between atoms: _239  and  _241
REMARK   98  A    between atoms: _241  and  _242
REMARK   99  A    between atoms: _244  and  _246
REMARK  100  A    between atoms: _246  and  _247
REMARK  101  A    between atoms: _246  and  _249
REMARK  102  A    between atoms: _249  and  _250
REMARK  103  A    between atoms: _250  and  _251
REMARK  104  A    between atoms: _251  and  _252
REMARK  105  A    between atoms: _261  and  _263
REMARK  106  A    between atoms: _263  and  _264
REMARK  107  A    between atoms: _263  and  _266
REMARK  108  A    between atoms: _266  and  _267
REMARK  109  A    between atoms: _272  and  _274
REMARK  110  A    between atoms: _274  and  _275
REMARK  111  A    between atoms: _274  and  _277
REMARK  112  A    between atoms: _277  and  _278
REMARK  113  A    between atoms: _278  and  _279
REMARK  114  A    between atoms: _279  and  _280
REMARK  115  A    between atoms: _289  and  _291
REMARK  116  A    between atoms: _291  and  _292
REMARK  117  A    between atoms: _291  and  _294
REMARK  118  A    between atoms: _294  and  _295
REMARK  119  A    between atoms: _298  and  _300
REMARK  120  A    between atoms: _300  and  _301
REMARK  121  A    between atoms: _300  and  _303
REMARK  122  A    between atoms: _303  and  _304
REMARK  123  A    between atoms: _307  and  _309
REMARK  124  A    between atoms: _309  and  _310
REMARK  125  A    between atoms: _309  and  _312
REMARK  126  A    between atoms: _312  and  _313
REMARK  127  A    between atoms: _316  and  _318
REMARK  128  A    between atoms: _318  and  _319
REMARK  129  A    between atoms: _318  and  _321
REMARK  130  A    between atoms: _321  and  _322
REMARK  131  A    between atoms: _325  and  _327
REMARK  132  A    between atoms: _327  and  _328
REMARK  133  A    between atoms: _330  and  _332
REMARK  134  A    between atoms: _332  and  _333
REMARK  135  A    between atoms: _336  and  _338
REMARK  136  A    between atoms: _338  and  _339
REMARK  137  A    between atoms: _338  and  _341
REMARK  138  A    between atoms: _341  and  _342
REMARK  139  A    between atoms: _345  and  _347
REMARK  140  A    between atoms: _347  and  _348
REMARK  141  A    between atoms: _347  and  _350
REMARK  142  A    between atoms: _350  and  _351
REMARK  143  A    between atoms: _356  and  _358
REMARK  144  A    between atoms: _358  and  _359
REMARK  145  A    between atoms: _358  and  _361
REMARK  146  A    between atoms: _361  and  _362
REMARK  147  A    between atoms: _365  and  _367
REMARK  148  A    between atoms: _367  and  _368
REMARK  149  A    between atoms: _367  and  _370
REMARK  150  A    between atoms: _373  and  _375
REMARK  151  A    between atoms: _375  and  _376
REMARK  152  A    between atoms: _375  and  _378
REMARK  153  A    between atoms: _378  and  _379
REMARK  154  A    between atoms: _382  and  _384
REMARK  155  A    between atoms: _384  and  _385
REMARK  156  A    between atoms: _384  and  _387
REMARK  157  A    between atoms: _387  and  _388
REMARK  158  A    between atoms: _388  and  _389
REMARK  159  A    between atoms: _389  and  _390
REMARK  160  A    between atoms: _390  and  _391
REMARK  161  A    between atoms: _395  and  _397
REMARK  162  A    between atoms: _397  and  _398
REMARK  163  A    between atoms: _397  and  _400
REMARK  164  A    between atoms: _400  and  _401
REMARK  165  A    between atoms: _401  and  _402
REMARK  166  A    between atoms: _404  and  _406
REMARK  167  A    between atoms: _406  and  _407
REMARK  168  A    between atoms: _406  and  _409
REMARK  169  A    between atoms: _409  and  _410
REMARK  170  A    between atoms: _413  and  _415
REMARK  171  A    between atoms: _415  and  _416
REMARK  172  A    between atoms: _418  and  _420
REMARK  173  A    between atoms: _420  and  _421
REMARK  174  A    between atoms: _423  and  _425
REMARK  175  A    between atoms: _425  and  _426
REMARK  176  A    between atoms: _425  and  _428
REMARK  177  A    between atoms: _428  and  _429
REMARK  178  A    between atoms: _432  and  _434
REMARK  179  A    between atoms: _434  and  _435
REMARK  180  A    between atoms: _437  and  _439
REMARK  181  A    between atoms: _439  and  _440
REMARK  182  A    between atoms: _442  and  _444
REMARK  183  A    between atoms: _444  and  _445
REMARK  184  A    between atoms: _444  and  _447
REMARK  185  A    between atoms: _447  and  _448
REMARK  186  A    between atoms: _454  and  _456
REMARK  187  A    between atoms: _456  and  _457
REMARK  188  A    between atoms: _456  and  _459
REMARK  189  A    between atoms: _459  and  _460
REMARK  190  A    between atoms: _463  and  _465
REMARK  191  A    between atoms: _465  and  _466
REMARK  192  A    between atoms: _465  and  _468
REMARK  193  A    between atoms: _471  and  _473
REMARK  194  A    between atoms: _473  and  _474
REMARK  195  A    between atoms: _473  and  _476
REMARK  196  A    between atoms: _476  and  _477
REMARK  197  A    between atoms: _480  and  _482
REMARK  198  A    between atoms: _482  and  _483
REMARK  199  A    between atoms: _482  and  _485
REMARK  200  A    between atoms: _485  and  _486
REMARK  201  A    between atoms: _490  and  _491
REMARK  202  A    between atoms: _496  and  _498
REMARK  203  A    between atoms: _498  and  _499
REMARK  204  A    between atoms: _498  and  _501
REMARK  205  A    between atoms: _504  and  _506
REMARK  206  A    between atoms: _506  and  _507
REMARK  207  A    between atoms: _506  and  _509
REMARK  208  A    between atoms: _509  and  _510
REMARK  209  A    between atoms: _515  and  _517
REMARK  210  A    between atoms: _517  and  _518
REMARK  211  A    between atoms: _517  and  _520
REMARK  212  A    between atoms: _520  and  _521
REMARK  213  A    between atoms: _524  and  _526
REMARK  214  A    between atoms: _526  and  _527
REMARK  215  A    between atoms: _526  and  _529
REMARK  216  A    between atoms: _529  and  _530
REMARK  217  A    between atoms: _533  and  _535
REMARK  218  A    between atoms: _535  and  _536
REMARK  219  A    between atoms: _538  and  _540
REMARK  220  A    between atoms: _540  and  _541
REMARK  221  A    between atoms: _540  and  _543
REMARK  222  A    between atoms: _543  and  _544
REMARK  223  A    between atoms: _544  and  _545
REMARK  224  A    between atoms: _545  and  _546
REMARK                            x       y       z     vdW  Elec       q    Type
REMARK                         _______ _______ _______ _____ _____    ______ ____
ROOT
ATOM      1  O   HOH     1      -7.665  13.287  27.110  0.00  0.00    +0.000 OA
ENDROOT
TORSDOF 0
REMARK  Name = ../refined-set-2016/2q64/2q64_pocket.pdb
REMARK  224 active torsions:
REMARK  status: ('A' for Active; 'I' for Inactive)
REMARK    1  A    between atoms: _1  and  _3
REMARK    2  A    between atoms: _3  and  _4
REMARK    3  A    between atoms: _3  and  _6
REMARK    4  A    between atoms: _6  and  _7
REMARK    5  A    between atoms: _7  and  _8
REMARK    6  A    between atoms: _8  and  _9
REMARK    7  A    between atoms: _18  and  _20
REMARK    8  A    between atoms: _20  and  _21
REMARK    9  A    between atoms: _20  and  _23
REMARK   10  A    between atoms: _23  and  _24
REMARK   11  A    between atoms: _27  and  _29
REMARK   12  A    between atoms: _29  and  _30
REMARK   13  A    between atoms: _29  and  _32
REMARK   14  A    between atoms: _32  and  _33
REMARK   15  A    between atoms: _36  and  _38
REMARK   16  A    between atoms: _38  and  _39
REMARK   17  A    between atoms: _38  and  _41
REMARK   18  A    between atoms: _41  and  _42
REMARK   19  A    between atoms: _45  and  _47
REMARK   20  A    between atoms: _47  and  _48
REMARK   21  A    between atoms: _47  and  _50
REMARK   22  A    between atoms: _50  and  _51
REMARK   23  A    between atoms: _54  and  _56
REMARK   24  A    between atoms: _56  and  _57
REMARK   25  A    between atoms: _59  and  _61
REMARK   26  A    between atoms: _61  and  _62
REMARK   27  A    between atoms: _65  and  _67
REMARK   28  A    between atoms: _67  and  _68
REMARK   29  A    between atoms: _67  and  _70
REMARK   30  A    between atoms: _70  and  _71
REMARK   31  A    between atoms: _74  and  _76
REMARK   32  A    between atoms: _76  and  _77
REMARK   33  A    between atoms: _76  and  _79
REMARK   34  A    between atoms: _79  and  _80
REMARK   35  A    between atoms: _85  and  _87
REMARK   36  A    between atoms: _87  and  _88
REMARK   37  A    between atoms: _87  and  _90
REMARK   38  A    between atoms: _90  and  _91
REMARK   39  A    between atoms: _94  and  _96
REMARK   40  A    between atoms: _96  and  _97
REMARK   41  A    between atoms: _96  and  _99
REMARK   42  A    between atoms: _102  and  _104
REMARK   43  A    between atoms: _104  and  _105
REMARK   44  A    between atoms: _104  and  _107
REMARK   45  A    between atoms: _107  and  _108
REMARK   46  A    between atoms: _108  and  _109
REMARK   47  A    between atoms: _109  and  _110
REMARK   48  A    between atoms: _110  and  _111
REMARK   49  A    between atoms: _115  and  _117
REMARK   50  A    between atoms: _117  and  _118
REMARK   51  A    between atoms: _117  and  _120
REMARK   52  A    between atoms: _120  and  _121
REMARK   53  A    between atoms: _121  and  _122
REMARK   54  A    between atoms: _124  and  _126
REMARK   55  A    between atoms: _126  and  _127
REMARK   56  A    between atoms: _126  and  _129
REMARK   57  A    between atoms: _129  and  _130
REMARK   58  A    between atoms: _133  and  _135
REMARK   59  A    between atoms: _135  and  _136
REMARK   60  A    between atoms: _138  and  _140
REMARK   61  A    between atoms: _140  and  _141
REMARK   62  A    between atoms: _145  and  _146
REMARK   63  A    between atoms: _145  and  _148
REMARK   64  A    between atoms: _148  and  _149
REMARK   65  A    between atoms: _152  and  _154
REMARK   66  A    between atoms: _154  and  _155
REMARK   67  A    between atoms: _157  and  _159
REMARK   68  A    between atoms: _159  and  _160
REMARK   69  A    between atoms: _162  and  _164
REMARK   70  A    between atoms: _164  and  _165
REMARK   71  A    between atoms: _164  and  _167
REMARK   72  A    between atoms: _167  and  _168
REMARK   73  A    between atoms: _171  and  _173
REMARK   74  A    between atoms: _173  and  _174
REMARK   75  A    between atoms: _173  and  _176
REMARK   76  A    between atoms: _179  and  _181
REMARK   77  A    between atoms: _181  and  _182
REMARK   78  A    between atoms: _181  and  _184
REMARK   79  A    between atoms: _184  and  _185
REMARK   80  A    between atoms: _189  and  _190
REMARK   81  A    between atoms: _195  and  _197
REMARK   82  A    between atoms: _197  and  _198
REMARK   83  A    between atoms: _197  and  _200
REMARK   84  A    between atoms: _200  and  _201
REMARK   85  A    between atoms: _205  and  _206
REMARK   86  A    between atoms: _211  and  _213
REMARK   87  A    between atoms: _213  and  _214
REMARK   88  A    between atoms: _213  and  _216
REMARK   89  A    between atoms: _219  and  _221
REMARK   90  A    between atoms: _221  and  _222
REMARK   91  A    between atoms: _221  and  _224
REMARK   92  A    between atoms: _224  and  _225
REMARK   93  A    between atoms: _230  and  _232
REMARK   94  A    between atoms: _232  and  _233
REMARK   95  A    between atoms: _232  and  _235
REMARK   96  A    between atoms: _235  and  _236
REMARK   97  A    between atoms: _239  and  _241
REMARK   98  A    between atoms: _241  and  _242
REMARK   99  A    between atoms: _244  and  _246
REMARK  100  A    between atoms: _246  and  _247
REMARK  101  A    between atoms: _246  and  _249
REMARK  102  A    between atoms: _249  and  _250
REMARK  103  A    between atoms: _250  and  _251
REMARK  104  A    between atoms: _251  and  _252
REMARK  105  A    between atoms: _261  and  _263
REMARK  106  A    between atoms: _263  and  _264
REMARK  107  A    between atoms: _263  and  _266
REMARK  108  A    between atoms: _266  and  _267
REMARK  109  A    between atoms: _272  and  _274
REMARK  110  A    between atoms: _274  and  _275
REMARK  111  A    between atoms: _274  and  _277
REMARK  112  A    between atoms: _277  and  _278
REMARK  113  A    between atoms: _278  and  _279
REMARK  114  A    between atoms: _279  and  _280
REMARK  115  A    between atoms: _289  and  _291
REMARK  116  A    between atoms: _291  and  _292
REMARK  117  A    between atoms: _291  and  _294
REMARK  118  A    between atoms: _294  and  _295
REMARK  119  A    between atoms: _298  and  _300
REMARK  120  A    between atoms: _300  and  _301
REMARK  121  A    between atoms: _300  and  _303
REMARK  122  A    between atoms: _303  and  _304
REMARK  123  A    between atoms: _307  and  _309
REMARK  124  A    between atoms: _309  and  _310
REMARK  125  A    between atoms: _309  and  _312
REMARK  126  A    between atoms: _312  and  _313
REMARK  127  A    between atoms: _316  and  _318
REMARK  128  A    between atoms: _318  and  _319
REMARK  129  A    between atoms: _318  and  _321
REMARK  130  A    between atoms: _321  and  _322
REMARK  131  A    between atoms: _325  and  _327
REMARK  132  A    between atoms: _327  and  _328
REMARK  133  A    between atoms: _330  and  _332
REMARK  134  A    between atoms: _332  and  _333
REMARK  135  A    between atoms: _336  and  _338
REMARK  136  A    between atoms: _338  and  _339
REMARK  137  A    between atoms: _338  and  _341
REMARK  138  A    between atoms: _341  and  _342
REMARK  139  A    between atoms: _345  and  _347
REMARK  140  A    between atoms: _347  and  _348
REMARK  141  A    between atoms: _347  and  _350
REMARK  142  A    between atoms: _350  and  _351
REMARK  143  A    between atoms: _356  and  _358
REMARK  144  A    between atoms: _358  and  _359
REMARK  145  A    between atoms: _358  and  _361
REMARK  146  A    between atoms: _361  and  _362
REMARK  147  A    between atoms: _365  and  _367
REMARK  148  A    between atoms: _367  and  _368
REMARK  149  A    between atoms: _367  and  _370
REMARK  150  A    between atoms: _373  and  _375
REMARK  151  A    between atoms: _375  and  _376
REMARK  152  A    between atoms: _375  and  _378
REMARK  153  A    between atoms: _378  and  _379
REMARK  154  A    between atoms: _382  and  _384
REMARK  155  A    between atoms: _384  and  _385
REMARK  156  A    between atoms: _384  and  _387
REMARK  157  A    between atoms: _387  and  _388
REMARK  158  A    between atoms: _388  and  _389
REMARK  159  A    between atoms: _389  and  _390
REMARK  160  A    between atoms: _390  and  _391
REMARK  161  A    between atoms: _395  and  _397
REMARK  162  A    between atoms: _397  and  _398
REMARK  163  A    between atoms: _397  and  _400
REMARK  164  A    between atoms: _400  and  _401
REMARK  165  A    between atoms: _401  and  _402
REMARK  166  A    between atoms: _404  and  _406
REMARK  167  A    between atoms: _406  and  _407
REMARK  168  A    between atoms: _406  and  _409
REMARK  169  A    between atoms: _409  and  _410
REMARK  170  A    between atoms: _413  and  _415
REMARK  171  A    between atoms: _415  and  _416
REMARK  172  A    between atoms: _418  and  _420
REMARK  173  A    between atoms: _420  and  _421
REMARK  174  A    between atoms: _423  and  _425
REMARK  175  A    between atoms: _425  and  _426
REMARK  176  A    between atoms: _425  and  _428
REMARK  177  A    between atoms: _428  and  _429
REMARK  178  A    between atoms: _432  and  _434
REMARK  179  A    between atoms: _434  and  _435
REMARK  180  A    between atoms: _437  and  _439
REMARK  181  A    between atoms: _439  and  _440
REMARK  182  A    between atoms: _442  and  _444
REMARK  183  A    between atoms: _444  and  _445
REMARK  184  A    between atoms: _444  and  _447
REMARK  185  A    between atoms: _447  and  _448
REMARK  186  A    between atoms: _454  and  _456
REMARK  187  A    between atoms: _456  and  _457
REMARK  188  A    between atoms: _456  and  _459
REMARK  189  A    between atoms: _459  and  _460
REMARK  190  A    between atoms: _463  and  _465
REMARK  191  A    between atoms: _465  and  _466
REMARK  192  A    between atoms: _465  and  _468
REMARK  193  A    between atoms: _471  and  _473
REMARK  194  A    between atoms: _473  and  _474
REMARK  195  A    between atoms: _473  and  _476
REMARK  196  A    between atoms: _476  and  _477
REMARK  197  A    between atoms: _480  and  _482
REMARK  198  A    between atoms: _482  and  _483
REMARK  199  A    between atoms: _482  and  _485
REMARK  200  A    between atoms: _485  and  _486
REMARK  201  A    between atoms: _490  and  _491
REMARK  202  A    between atoms: _496  and  _498
REMARK  203  A    between atoms: _498  and  _499
REMARK  204  A    between atoms: _498  and  _501
REMARK  205  A    between atoms: _504  and  _506
REMARK  206  A    between atoms: _506  and  _507
REMARK  207  A    between atoms: _506  and  _509
REMARK  208  A    between atoms: _509  and  _510
REMARK  209  A    between atoms: _515  and  _517
REMARK  210  A    between atoms: _517  and  _518
REMARK  211  A    between atoms: _517  and  _520
REMARK  212  A    between atoms: _520  and  _521
REMARK  213  A    between atoms: _524  and  _526
REMARK  214  A    between atoms: _526  and  _527
REMARK  215  A    between atoms: _526  and  _529
REMARK  216  A    between atoms: _529  and  _530
REMARK  217  A    between atoms: _533  and  _535
REMARK  218  A    between atoms: _535  and  _536
REMARK  219  A    between atoms: _538  and  _540
REMARK  220  A    between atoms: _540  and  _541
REMARK  221  A    between atoms: _540  and  _543
REMARK  222  A    between atoms: _543  and  _544
REMARK  223  A    between atoms: _544  and  _545
REMARK  224  A    between atoms: _545  and  _546
REMARK                            x       y       z     vdW  Elec       q    Type
REMARK                         _______ _______ _______ _____ _____    ______ ____
ROOT
ATOM      1  O   HOH     1     -16.449  18.623  31.635  0.00  0.00    +0.000 OA
ENDROOT
TORSDOF 0
REMARK  Name = ../refined-set-2016/2q64/2q64_pocket.pdb
REMARK  224 active torsions:
REMARK  status: ('A' for Active; 'I' for Inactive)
REMARK    1  A    between atoms: _1  and  _3
REMARK    2  A    between atoms: _3  and  _4
REMARK    3  A    between atoms: _3  and  _6
REMARK    4  A    between atoms: _6  and  _7
REMARK    5  A    between atoms: _7  and  _8
REMARK    6  A    between atoms: _8  and  _9
REMARK    7  A    between atoms: _18  and  _20
REMARK    8  A    between atoms: _20  and  _21
REMARK    9  A    between atoms: _20  and  _23
REMARK   10  A    between atoms: _23  and  _24
REMARK   11  A    between atoms: _27  and  _29
REMARK   12  A    between atoms: _29  and  _30
REMARK   13  A    between atoms: _29  and  _32
REMARK   14  A    between atoms: _32  and  _33
REMARK   15  A    between atoms: _36  and  _38
REMARK   16  A    between atoms: _38  and  _39
REMARK   17  A    between atoms: _38  and  _41
REMARK   18  A    between atoms: _41  and  _42
REMARK   19  A    between atoms: _45  and  _47
REMARK   20  A    between atoms: _47  and  _48
REMARK   21  A    between atoms: _47  and  _50
REMARK   22  A    between atoms: _50  and  _51
REMARK   23  A    between atoms: _54  and  _56
REMARK   24  A    between atoms: _56  and  _57
REMARK   25  A    between atoms: _59  and  _61
REMARK   26  A    between atoms: _61  and  _62
REMARK   27  A    between atoms: _65  and  _67
REMARK   28  A    between atoms: _67  and  _68
REMARK   29  A    between atoms: _67  and  _70
REMARK   30  A    between atoms: _70  and  _71
REMARK   31  A    between atoms: _74  and  _76
REMARK   32  A    between atoms: _76  and  _77
REMARK   33  A    between atoms: _76  and  _79
REMARK   34  A    between atoms: _79  and  _80
REMARK   35  A    between atoms: _85  and  _87
REMARK   36  A    between atoms: _87  and  _88
REMARK   37  A    between atoms: _87  and  _90
REMARK   38  A    between atoms: _90  and  _91
REMARK   39  A    between atoms: _94  and  _96
REMARK   40  A    between atoms: _96  and  _97
REMARK   41  A    between atoms: _96  and  _99
REMARK   42  A    between atoms: _102  and  _104
REMARK   43  A    between atoms: _104  and  _105
REMARK   44  A    between atoms: _104  and  _107
REMARK   45  A    between atoms: _107  and  _108
REMARK   46  A    between atoms: _108  and  _109
REMARK   47  A    between atoms: _109  and  _110
REMARK   48  A    between atoms: _110  and  _111
REMARK   49  A    between atoms: _115  and  _117
REMARK   50  A    between atoms: _117  and  _118
REMARK   51  A    between atoms: _117  and  _120
REMARK   52  A    between atoms: _120  and  _121
REMARK   53  A    between atoms: _121  and  _122
REMARK   54  A    between atoms: _124  and  _126
REMARK   55  A    between atoms: _126  and  _127
REMARK   56  A    between atoms: _126  and  _129
REMARK   57  A    between atoms: _129  and  _130
REMARK   58  A    between atoms: _133  and  _135
REMARK   59  A    between atoms: _135  and  _136
REMARK   60  A    between atoms: _138  and  _140
REMARK   61  A    between atoms: _140  and  _141
REMARK   62  A    between atoms: _145  and  _146
REMARK   63  A    between atoms: _145  and  _148
REMARK   64  A    between atoms: _148  and  _149
REMARK   65  A    between atoms: _152  and  _154
REMARK   66  A    between atoms: _154  and  _155
REMARK   67  A    between atoms: _157  and  _159
REMARK   68  A    between atoms: _159  and  _160
REMARK   69  A    between atoms: _162  and  _164
REMARK   70  A    between atoms: _164  and  _165
REMARK   71  A    between atoms: _164  and  _167
REMARK   72  A    between atoms: _167  and  _168
REMARK   73  A    between atoms: _171  and  _173
REMARK   74  A    between atoms: _173  and  _174
REMARK   75  A    between atoms: _173  and  _176
REMARK   76  A    between atoms: _179  and  _181
REMARK   77  A    between atoms: _181  and  _182
REMARK   78  A    between atoms: _181  and  _184
REMARK   79  A    between atoms: _184  and  _185
REMARK   80  A    between atoms: _189  and  _190
REMARK   81  A    between atoms: _195  and  _197
REMARK   82  A    between atoms: _197  and  _198
REMARK   83  A    between atoms: _197  and  _200
REMARK   84  A    between atoms: _200  and  _201
REMARK   85  A    between atoms: _205  and  _206
REMARK   86  A    between atoms: _211  and  _213
REMARK   87  A    between atoms: _213  and  _214
REMARK   88  A    between atoms: _213  and  _216
REMARK   89  A    between atoms: _219  and  _221
REMARK   90  A    between atoms: _221  and  _222
REMARK   91  A    between atoms: _221  and  _224
REMARK   92  A    between atoms: _224  and  _225
REMARK   93  A    between atoms: _230  and  _232
REMARK   94  A    between atoms: _232  and  _233
REMARK   95  A    between atoms: _232  and  _235
REMARK   96  A    between atoms: _235  and  _236
REMARK   97  A    between atoms: _239  and  _241
REMARK   98  A    between atoms: _241  and  _242
REMARK   99  A    between atoms: _244  and  _246
REMARK  100  A    between atoms: _246  and  _247
REMARK  101  A    between atoms: _246  and  _249
REMARK  102  A    between atoms: _249  and  _250
REMARK  103  A    between atoms: _250  and  _251
REMARK  104  A    between atoms: _251  and  _252
REMARK  105  A    between atoms: _261  and  _263
REMARK  106  A    between atoms: _263  and  _264
REMARK  107  A    between atoms: _263  and  _266
REMARK  108  A    between atoms: _266  and  _267
REMARK  109  A    between atoms: _272  and  _274
REMARK  110  A    between atoms: _274  and  _275
REMARK  111  A    between atoms: _274  and  _277
REMARK  112  A    between atoms: _277  and  _278
REMARK  113  A    between atoms: _278  and  _279
REMARK  114  A    between atoms: _279  and  _280
REMARK  115  A    between atoms: _289  and  _291
REMARK  116  A    between atoms: _291  and  _292
REMARK  117  A    between atoms: _291  and  _294
REMARK  118  A    between atoms: _294  and  _295
REMARK  119  A    between atoms: _298  and  _300
REMARK  120  A    between atoms: _300  and  _301
REMARK  121  A    between atoms: _300  and  _303
REMARK  122  A    between atoms: _303  and  _304
REMARK  123  A    between atoms: _307  and  _309
REMARK  124  A    between atoms: _309  and  _310
REMARK  125  A    between atoms: _309  and  _312
REMARK  126  A    between atoms: _312  and  _313
REMARK  127  A    between atoms: _316  and  _318
REMARK  128  A    between atoms: _318  and  _319
REMARK  129  A    between atoms: _318  and  _321
REMARK  130  A    between atoms: _321  and  _322
REMARK  131  A    between atoms: _325  and  _327
REMARK  132  A    between atoms: _327  and  _328
REMARK  133  A    between atoms: _330  and  _332
REMARK  134  A    between atoms: _332  and  _333
REMARK  135  A    between atoms: _336  and  _338
REMARK  136  A    between atoms: _338  and  _339
REMARK  137  A    between atoms: _338  and  _341
REMARK  138  A    between atoms: _341  and  _342
REMARK  139  A    between atoms: _345  and  _347
REMARK  140  A    between atoms: _347  and  _348
REMARK  141  A    between atoms: _347  and  _350
REMARK  142  A    between atoms: _350  and  _351
REMARK  143  A    between atoms: _356  and  _358
REMARK  144  A    between atoms: _358  and  _359
REMARK  145  A    between atoms: _358  and  _361
REMARK  146  A    between atoms: _361  and  _362
REMARK  147  A    between atoms: _365  and  _367
REMARK  148  A    between atoms: _367  and  _368
REMARK  149  A    between atoms: _367  and  _370
REMARK  150  A    between atoms: _373  and  _375
REMARK  151  A    between atoms: _375  and  _376
REMARK  152  A    between atoms: _375  and  _378
REMARK  153  A    between atoms: _378  and  _379
REMARK  154  A    between atoms: _382  and  _384
REMARK  155  A    between atoms: _384  and  _385
REMARK  156  A    between atoms: _384  and  _387
REMARK  157  A    between atoms: _387  and  _388
REMARK  158  A    between atoms: _388  and  _389
REMARK  159  A    between atoms: _389  and  _390
REMARK  160  A    between atoms: _390  and  _391
REMARK  161  A    between atoms: _395  and  _397
REMARK  162  A    between atoms: _397  and  _398
REMARK  163  A    between atoms: _397  and  _400
REMARK  164  A    between atoms: _400  and  _401
REMARK  165  A    between atoms: _401  and  _402
REMARK  166  A    between atoms: _404  and  _406
REMARK  167  A    between atoms: _406  and  _407
REMARK  168  A    between atoms: _406  and  _409
REMARK  169  A    between atoms: _409  and  _410
REMARK  170  A    between atoms: _413  and  _415
REMARK  171  A    between atoms: _415  and  _416
REMARK  172  A    between atoms: _418  and  _420
REMARK  173  A    between atoms: _420  and  _421
REMARK  174  A    between atoms: _423  and  _425
REMARK  175  A    between atoms: _425  and  _426
REMARK  176  A    between atoms: _425  and  _428
REMARK  177  A    between atoms: _428  and  _429
REMARK  178  A    between atoms: _432  and  _434
REMARK  179  A    between atoms: _434  and  _435
REMARK  180  A    between atoms: _437  and  _439
REMARK  181  A    between atoms: _439  and  _440
REMARK  182  A    between atoms: _442  and  _444
REMARK  183  A    between atoms: _444  and  _445
REMARK  184  A    between atoms: _444  and  _447
REMARK  185  A    between atoms: _447  and  _448
REMARK  186  A    between atoms: _454  and  _456
REMARK  187  A    between atoms: _456  and  _457
REMARK  188  A    between atoms: _456  and  _459
REMARK  189  A    between atoms: _459  and  _460
REMARK  190  A    between atoms: _463  and  _465
REMARK  191  A    between atoms: _465  and  _466
REMARK  192  A    between atoms: _465  and  _468
REMARK  193  A    between atoms: _471  and  _473
REMARK  194  A    between atoms: _473  and  _474
REMARK  195  A    between atoms: _473  and  _476
REMARK  196  A    between atoms: _476  and  _477
REMARK  197  A    between atoms: _480  and  _482
REMARK  198  A    between atoms: _482  and  _483
REMARK  199  A    between atoms: _482  and  _485
REMARK  200  A    between atoms: _485  and  _486
REMARK  201  A    between atoms: _490  and  _491
REMARK  202  A    between atoms: _496  and  _498
REMARK  203  A    between atoms: _498  and  _499
REMARK  204  A    between atoms: _498  and  _501
REMARK  205  A    between atoms: _504  and  _506
REMARK  206  A    between atoms: _506  and  _507
REMARK  207  A    between atoms: _506  and  _509
REMARK  208  A    between atoms: _509  and  _510
REMARK  209  A    between atoms: _515  and  _517
REMARK  210  A    between atoms: _517  and  _518
REMARK  211  A    between atoms: _517  and  _520
REMARK  212  A    between atoms: _520  and  _521
REMARK  213  A    between atoms: _524  and  _526
REMARK  214  A    between atoms: _526  and  _527
REMARK  215  A    between atoms: _526  and  _529
REMARK  216  A    between atoms: _529  and  _530
REMARK  217  A    between atoms: _533  and  _535
REMARK  218  A    between atoms: _535  and  _536
REMARK  219  A    between atoms: _538  and  _540
REMARK  220  A    between atoms: _540  and  _541
REMARK  221  A    between atoms: _540  and  _543
REMARK  222  A    between atoms: _543  and  _544
REMARK  223  A    between atoms: _544  and  _545
REMARK  224  A    between atoms: _545  and  _546
REMARK                            x       y       z     vdW  Elec       q    Type
REMARK                         _______ _______ _______ _____ _____    ______ ____
ROOT
ATOM      1  O   HOH     1      -8.494  18.735  40.169  0.00  0.00    +0.000 OA
ENDROOT
TORSDOF 0
REMARK  Name = ../refined-set-2016/2q64/2q64_pocket.pdb
REMARK  224 active torsions:
REMARK  status: ('A' for Active; 'I' for Inactive)
REMARK    1  A    between atoms: _1  and  _3
REMARK    2  A    between atoms: _3  and  _4
REMARK    3  A    between atoms: _3  and  _6
REMARK    4  A    between atoms: _6  and  _7
REMARK    5  A    between atoms: _7  and  _8
REMARK    6  A    between atoms: _8  and  _9
REMARK    7  A    between atoms: _18  and  _20
REMARK    8  A    between atoms: _20  and  _21
REMARK    9  A    between atoms: _20  and  _23
REMARK   10  A    between atoms: _23  and  _24
REMARK   11  A    between atoms: _27  and  _29
REMARK   12  A    between atoms: _29  and  _30
REMARK   13  A    between atoms: _29  and  _32
REMARK   14  A    between atoms: _32  and  _33
REMARK   15  A    between atoms: _36  and  _38
REMARK   16  A    between atoms: _38  and  _39
REMARK   17  A    between atoms: _38  and  _41
REMARK   18  A    between atoms: _41  and  _42
REMARK   19  A    between atoms: _45  and  _47
REMARK   20  A    between atoms: _47  and  _48
REMARK   21  A    between atoms: _47  and  _50
REMARK   22  A    between atoms: _50  and  _51
REMARK   23  A    between atoms: _54  and  _56
REMARK   24  A    between atoms: _56  and  _57
REMARK   25  A    between atoms: _59  and  _61
REMARK   26  A    between atoms: _61  and  _62
REMARK   27  A    between atoms: _65  and  _67
REMARK   28  A    between atoms: _67  and  _68
REMARK   29  A    between atoms: _67  and  _70
REMARK   30  A    between atoms: _70  and  _71
REMARK   31  A    between atoms: _74  and  _76
REMARK   32  A    between atoms: _76  and  _77
REMARK   33  A    between atoms: _76  and  _79
REMARK   34  A    between atoms: _79  and  _80
REMARK   35  A    between atoms: _85  and  _87
REMARK   36  A    between atoms: _87  and  _88
REMARK   37  A    between atoms: _87  and  _90
REMARK   38  A    between atoms: _90  and  _91
REMARK   39  A    between atoms: _94  and  _96
REMARK   40  A    between atoms: _96  and  _97
REMARK   41  A    between atoms: _96  and  _99
REMARK   42  A    between atoms: _102  and  _104
REMARK   43  A    between atoms: _104  and  _105
REMARK   44  A    between atoms: _104  and  _107
REMARK   45  A    between atoms: _107  and  _108
REMARK   46  A    between atoms: _108  and  _109
REMARK   47  A    between atoms: _109  and  _110
REMARK   48  A    between atoms: _110  and  _111
REMARK   49  A    between atoms: _115  and  _117
REMARK   50  A    between atoms: _117  and  _118
REMARK   51  A    between atoms: _117  and  _120
REMARK   52  A    between atoms: _120  and  _121
REMARK   53  A    between atoms: _121  and  _122
REMARK   54  A    between atoms: _124  and  _126
REMARK   55  A    between atoms: _126  and  _127
REMARK   56  A    between atoms: _126  and  _129
REMARK   57  A    between atoms: _129  and  _130
REMARK   58  A    between atoms: _133  and  _135
REMARK   59  A    between atoms: _135  and  _136
REMARK   60  A    between atoms: _138  and  _140
REMARK   61  A    between atoms: _140  and  _141
REMARK   62  A    between atoms: _145  and  _146
REMARK   63  A    between atoms: _145  and  _148
REMARK   64  A    between atoms: _148  and  _149
REMARK   65  A    between atoms: _152  and  _154
REMARK   66  A    between atoms: _154  and  _155
REMARK   67  A    between atoms: _157  and  _159
REMARK   68  A    between atoms: _159  and  _160
REMARK   69  A    between atoms: _162  and  _164
REMARK   70  A    between atoms: _164  and  _165
REMARK   71  A    between atoms: _164  and  _167
REMARK   72  A    between atoms: _167  and  _168
REMARK   73  A    between atoms: _171  and  _173
REMARK   74  A    between atoms: _173  and  _174
REMARK   75  A    between atoms: _173  and  _176
REMARK   76  A    between atoms: _179  and  _181
REMARK   77  A    between atoms: _181  and  _182
REMARK   78  A    between atoms: _181  and  _184
REMARK   79  A    between atoms: _184  and  _185
REMARK   80  A    between atoms: _189  and  _190
REMARK   81  A    between atoms: _195  and  _197
REMARK   82  A    between atoms: _197  and  _198
REMARK   83  A    between atoms: _197  and  _200
REMARK   84  A    between atoms: _200  and  _201
REMARK   85  A    between atoms: _205  and  _206
REMARK   86  A    between atoms: _211  and  _213
REMARK   87  A    between atoms: _213  and  _214
REMARK   88  A    between atoms: _213  and  _216
REMARK   89  A    between atoms: _219  and  _221
REMARK   90  A    between atoms: _221  and  _222
REMARK   91  A    between atoms: _221  and  _224
REMARK   92  A    between atoms: _224  and  _225
REMARK   93  A    between atoms: _230  and  _232
REMARK   94  A    between atoms: _232  and  _233
REMARK   95  A    between atoms: _232  and  _235
REMARK   96  A    between atoms: _235  and  _236
REMARK   97  A    between atoms: _239  and  _241
REMARK   98  A    between atoms: _241  and  _242
REMARK   99  A    between atoms: _244  and  _246
REMARK  100  A    between atoms: _246  and  _247
REMARK  101  A    between atoms: _246  and  _249
REMARK  102  A    between atoms: _249  and  _250
REMARK  103  A    between atoms: _250  and  _251
REMARK  104  A    between atoms: _251  and  _252
REMARK  105  A    between atoms: _261  and  _263
REMARK  106  A    between atoms: _263  and  _264
REMARK  107  A    between atoms: _263  and  _266
REMARK  108  A    between atoms: _266  and  _267
REMARK  109  A    between atoms: _272  and  _274
REMARK  110  A    between atoms: _274  and  _275
REMARK  111  A    between atoms: _274  and  _277
REMARK  112  A    between atoms: _277  and  _278
REMARK  113  A    between atoms: _278  and  _279
REMARK  114  A    between atoms: _279  and  _280
REMARK  115  A    between atoms: _289  and  _291
REMARK  116  A    between atoms: _291  and  _292
REMARK  117  A    between atoms: _291  and  _294
REMARK  118  A    between atoms: _294  and  _295
REMARK  119  A    between atoms: _298  and  _300
REMARK  120  A    between atoms: _300  and  _301
REMARK  121  A    between atoms: _300  and  _303
REMARK  122  A    between atoms: _303  and  _304
REMARK  123  A    between atoms: _307  and  _309
REMARK  124  A    between atoms: _309  and  _310
REMARK  125  A    between atoms: _309  and  _312
REMARK  126  A    between atoms: _312  and  _313
REMARK  127  A    between atoms: _316  and  _318
REMARK  128  A    between atoms: _318  and  _319
REMARK  129  A    between atoms: _318  and  _321
REMARK  130  A    between atoms: _321  and  _322
REMARK  131  A    between atoms: _325  and  _327
REMARK  132  A    between atoms: _327  and  _328
REMARK  133  A    between atoms: _330  and  _332
REMARK  134  A    between atoms: _332  and  _333
REMARK  135  A    between atoms: _336  and  _338
REMARK  136  A    between atoms: _338  and  _339
REMARK  137  A    between atoms: _338  and  _341
REMARK  138  A    between atoms: _341  and  _342
REMARK  139  A    between atoms: _345  and  _347
REMARK  140  A    between atoms: _347  and  _348
REMARK  141  A    between atoms: _347  and  _350
REMARK  142  A    between atoms: _350  and  _351
REMARK  143  A    between atoms: _356  and  _358
REMARK  144  A    between atoms: _358  and  _359
REMARK  145  A    between atoms: _358  and  _361
REMARK  146  A    between atoms: _361  and  _362
REMARK  147  A    between atoms: _365  and  _367
REMARK  148  A    between atoms: _367  and  _368
REMARK  149  A    between atoms: _367  and  _370
REMARK  150  A    between atoms: _373  and  _375
REMARK  151  A    between atoms: _375  and  _376
REMARK  152  A    between atoms: _375  and  _378
REMARK  153  A    between atoms: _378  and  _379
REMARK  154  A    between atoms: _382  and  _384
REMARK  155  A    between atoms: _384  and  _385
REMARK  156  A    between atoms: _384  and  _387
REMARK  157  A    between atoms: _387  and  _388
REMARK  158  A    between atoms: _388  and  _389
REMARK  159  A    between atoms: _389  and  _390
REMARK  160  A    between atoms: _390  and  _391
REMARK  161  A    between atoms: _395  and  _397
REMARK  162  A    between atoms: _397  and  _398
REMARK  163  A    between atoms: _397  and  _400
REMARK  164  A    between atoms: _400  and  _401
REMARK  165  A    between atoms: _401  and  _402
REMARK  166  A    between atoms: _404  and  _406
REMARK  167  A    between atoms: _406  and  _407
REMARK  168  A    between atoms: _406  and  _409
REMARK  169  A    between atoms: _409  and  _410
REMARK  170  A    between atoms: _413  and  _415
REMARK  171  A    between atoms: _415  and  _416
REMARK  172  A    between atoms: _418  and  _420
REMARK  173  A    between atoms: _420  and  _421
REMARK  174  A    between atoms: _423  and  _425
REMARK  175  A    between atoms: _425  and  _426
REMARK  176  A    between atoms: _425  and  _428
REMARK  177  A    between atoms: _428  and  _429
REMARK  178  A    between atoms: _432  and  _434
REMARK  179  A    between atoms: _434  and  _435
REMARK  180  A    between atoms: _437  and  _439
REMARK  181  A    between atoms: _439  and  _440
REMARK  182  A    between atoms: _442  and  _444
REMARK  183  A    between atoms: _444  and  _445
REMARK  184  A    between atoms: _444  and  _447
REMARK  185  A    between atoms: _447  and  _448
REMARK  186  A    between atoms: _454  and  _456
REMARK  187  A    between atoms: _456  and  _457
REMARK  188  A    between atoms: _456  and  _459
REMARK  189  A    between atoms: _459  and  _460
REMARK  190  A    between atoms: _463  and  _465
REMARK  191  A    between atoms: _465  and  _466
REMARK  192  A    between atoms: _465  and  _468
REMARK  193  A    between atoms: _471  and  _473
REMARK  194  A    between atoms: _473  and  _474
REMARK  195  A    between atoms: _473  and  _476
REMARK  196  A    between atoms: _476  and  _477
REMARK  197  A    between atoms: _480  and  _482
REMARK  198  A    between atoms: _482  and  _483
REMARK  199  A    between atoms: _482  and  _485
REMARK  200  A    between atoms: _485  and  _486
REMARK  201  A    between atoms: _490  and  _491
REMARK  202  A    between atoms: _496  and  _498
REMARK  203  A    between atoms: _498  and  _499
REMARK  204  A    between atoms: _498  and  _501
REMARK  205  A    between atoms: _504  and  _506
REMARK  206  A    between atoms: _506  and  _507
REMARK  207  A    between atoms: _506  and  _509
REMARK  208  A    between atoms: _509  and  _510
REMARK  209  A    between atoms: _515  and  _517
REMARK  210  A    between atoms: _517  and  _518
REMARK  211  A    between atoms: _517  and  _520
REMARK  212  A    between atoms: _520  and  _521
REMARK  213  A    between atoms: _524  and  _526
REMARK  214  A    between atoms: _526  and  _527
REMARK  215  A    between atoms: _526  and  _529
REMARK  216  A    between atoms: _529  and  _530
REMARK  217  A    between atoms: _533  and  _535
REMARK  218  A    between atoms: _535  and  _536
REMARK  219  A    between atoms: _538  and  _540
REMARK  220  A    between atoms: _540  and  _541
REMARK  221  A    between atoms: _540  and  _543
REMARK  222  A    between atoms: _543  and  _544
REMARK  223  A    between atoms: _544  and  _545
REMARK  224  A    between atoms: _545  and  _546
REMARK                            x       y       z     vdW  Elec       q    Type
REMARK                         _______ _______ _______ _____ _____    ______ ____
ROOT
ATOM      1  O   HOH     1     -15.403  15.833  31.331  0.00  0.00    +0.000 OA
ENDROOT
TORSDOF 0
REMARK  Name = ../refined-set-2016/2q64/2q64_pocket.pdb
REMARK  224 active torsions:
REMARK  status: ('A' for Active; 'I' for Inactive)
REMARK    1  A    between atoms: _1  and  _3
REMARK    2  A    between atoms: _3  and  _4
REMARK    3  A    between atoms: _3  and  _6
REMARK    4  A    between atoms: _6  and  _7
REMARK    5  A    between atoms: _7  and  _8
REMARK    6  A    between atoms: _8  and  _9
REMARK    7  A    between atoms: _18  and  _20
REMARK    8  A    between atoms: _20  and  _21
REMARK    9  A    between atoms: _20  and  _23
REMARK   10  A    between atoms: _23  and  _24
REMARK   11  A    between atoms: _27  and  _29
REMARK   12  A    between atoms: _29  and  _30
REMARK   13  A    between atoms: _29  and  _32
REMARK   14  A    between atoms: _32  and  _33
REMARK   15  A    between atoms: _36  and  _38
REMARK   16  A    between atoms: _38  and  _39
REMARK   17  A    between atoms: _38  and  _41
REMARK   18  A    between atoms: _41  and  _42
REMARK   19  A    between atoms: _45  and  _47
REMARK   20  A    between atoms: _47  and  _48
REMARK   21  A    between atoms: _47  and  _50
REMARK   22  A    between atoms: _50  and  _51
REMARK   23  A    between atoms: _54  and  _56
REMARK   24  A    between atoms: _56  and  _57
REMARK   25  A    between atoms: _59  and  _61
REMARK   26  A    between atoms: _61  and  _62
REMARK   27  A    between atoms: _65  and  _67
REMARK   28  A    between atoms: _67  and  _68
REMARK   29  A    between atoms: _67  and  _70
REMARK   30  A    between atoms: _70  and  _71
REMARK   31  A    between atoms: _74  and  _76
REMARK   32  A    between atoms: _76  and  _77
REMARK   33  A    between atoms: _76  and  _79
REMARK   34  A    between atoms: _79  and  _80
REMARK   35  A    between atoms: _85  and  _87
REMARK   36  A    between atoms: _87  and  _88
REMARK   37  A    between atoms: _87  and  _90
REMARK   38  A    between atoms: _90  and  _91
REMARK   39  A    between atoms: _94  and  _96
REMARK   40  A    between atoms: _96  and  _97
REMARK   41  A    between atoms: _96  and  _99
REMARK   42  A    between atoms: _102  and  _104
REMARK   43  A    between atoms: _104  and  _105
REMARK   44  A    between atoms: _104  and  _107
REMARK   45  A    between atoms: _107  and  _108
REMARK   46  A    between atoms: _108  and  _109
REMARK   47  A    between atoms: _109  and  _110
REMARK   48  A    between atoms: _110  and  _111
REMARK   49  A    between atoms: _115  and  _117
REMARK   50  A    between atoms: _117  and  _118
REMARK   51  A    between atoms: _117  and  _120
REMARK   52  A    between atoms: _120  and  _121
REMARK   53  A    between atoms: _121  and  _122
REMARK   54  A    between atoms: _124  and  _126
REMARK   55  A    between atoms: _126  and  _127
REMARK   56  A    between atoms: _126  and  _129
REMARK   57  A    between atoms: _129  and  _130
REMARK   58  A    between atoms: _133  and  _135
REMARK   59  A    between atoms: _135  and  _136
REMARK   60  A    between atoms: _138  and  _140
REMARK   61  A    between atoms: _140  and  _141
REMARK   62  A    between atoms: _145  and  _146
REMARK   63  A    between atoms: _145  and  _148
REMARK   64  A    between atoms: _148  and  _149
REMARK   65  A    between atoms: _152  and  _154
REMARK   66  A    between atoms: _154  and  _155
REMARK   67  A    between atoms: _157  and  _159
REMARK   68  A    between atoms: _159  and  _160
REMARK   69  A    between atoms: _162  and  _164
REMARK   70  A    between atoms: _164  and  _165
REMARK   71  A    between atoms: _164  and  _167
REMARK   72  A    between atoms: _167  and  _168
REMARK   73  A    between atoms: _171  and  _173
REMARK   74  A    between atoms: _173  and  _174
REMARK   75  A    between atoms: _173  and  _176
REMARK   76  A    between atoms: _179  and  _181
REMARK   77  A    between atoms: _181  and  _182
REMARK   78  A    between atoms: _181  and  _184
REMARK   79  A    between atoms: _184  and  _185
REMARK   80  A    between atoms: _189  and  _190
REMARK   81  A    between atoms: _195  and  _197
REMARK   82  A    between atoms: _197  and  _198
REMARK   83  A    between atoms: _197  and  _200
REMARK   84  A    between atoms: _200  and  _201
REMARK   85  A    between atoms: _205  and  _206
REMARK   86  A    between atoms: _211  and  _213
REMARK   87  A    between atoms: _213  and  _214
REMARK   88  A    between atoms: _213  and  _216
REMARK   89  A    between atoms: _219  and  _221
REMARK   90  A    between atoms: _221  and  _222
REMARK   91  A    between atoms: _221  and  _224
REMARK   92  A    between atoms: _224  and  _225
REMARK   93  A    between atoms: _230  and  _232
REMARK   94  A    between atoms: _232  and  _233
REMARK   95  A    between atoms: _232  and  _235
REMARK   96  A    between atoms: _235  and  _236
REMARK   97  A    between atoms: _239  and  _241
REMARK   98  A    between atoms: _241  and  _242
REMARK   99  A    between atoms: _244  and  _246
REMARK  100  A    between atoms: _246  and  _247
REMARK  101  A    between atoms: _246  and  _249
REMARK  102  A    between atoms: _249  and  _250
REMARK  103  A    between atoms: _250  and  _251
REMARK  104  A    between atoms: _251  and  _252
REMARK  105  A    between atoms: _261  and  _263
REMARK  106  A    between atoms: _263  and  _264
REMARK  107  A    between atoms: _263  and  _266
REMARK  108  A    between atoms: _266  and  _267
REMARK  109  A    between atoms: _272  and  _274
REMARK  110  A    between atoms: _274  and  _275
REMARK  111  A    between atoms: _274  and  _277
REMARK  112  A    between atoms: _277  and  _278
REMARK  113  A    between atoms: _278  and  _279
REMARK  114  A    between atoms: _279  and  _280
REMARK  115  A    between atoms: _289  and  _291
REMARK  116  A    between atoms: _291  and  _292
REMARK  117  A    between atoms: _291  and  _294
REMARK  118  A    between atoms: _294  and  _295
REMARK  119  A    between atoms: _298  and  _300
REMARK  120  A    between atoms: _300  and  _301
REMARK  121  A    between atoms: _300  and  _303
REMARK  122  A    between atoms: _303  and  _304
REMARK  123  A    between atoms: _307  and  _309
REMARK  124  A    between atoms: _309  and  _310
REMARK  125  A    between atoms: _309  and  _312
REMARK  126  A    between atoms: _312  and  _313
REMARK  127  A    between atoms: _316  and  _318
REMARK  128  A    between atoms: _318  and  _319
REMARK  129  A    between atoms: _318  and  _321
REMARK  130  A    between atoms: _321  and  _322
REMARK  131  A    between atoms: _325  and  _327
REMARK  132  A    between atoms: _327  and  _328
REMARK  133  A    between atoms: _330  and  _332
REMARK  134  A    between atoms: _332  and  _333
REMARK  135  A    between atoms: _336  and  _338
REMARK  136  A    between atoms: _338  and  _339
REMARK  137  A    between atoms: _338  and  _341
REMARK  138  A    between atoms: _341  and  _342
REMARK  139  A    between atoms: _345  and  _347
REMARK  140  A    between atoms: _347  and  _348
REMARK  141  A    between atoms: _347  and  _350
REMARK  142  A    between atoms: _350  and  _351
REMARK  143  A    between atoms: _356  and  _358
REMARK  144  A    between atoms: _358  and  _359
REMARK  145  A    between atoms: _358  and  _361
REMARK  146  A    between atoms: _361  and  _362
REMARK  147  A    between atoms: _365  and  _367
REMARK  148  A    between atoms: _367  and  _368
REMARK  149  A    between atoms: _367  and  _370
REMARK  150  A    between atoms: _373  and  _375
REMARK  151  A    between atoms: _375  and  _376
REMARK  152  A    between atoms: _375  and  _378
REMARK  153  A    between atoms: _378  and  _379
REMARK  154  A    between atoms: _382  and  _384
REMARK  155  A    between atoms: _384  and  _385
REMARK  156  A    between atoms: _384  and  _387
REMARK  157  A    between atoms: _387  and  _388
REMARK  158  A    between atoms: _388  and  _389
REMARK  159  A    between atoms: _389  and  _390
REMARK  160  A    between atoms: _390  and  _391
REMARK  161  A    between atoms: _395  and  _397
REMARK  162  A    between atoms: _397  and  _398
REMARK  163  A    between atoms: _397  and  _400
REMARK  164  A    between atoms: _400  and  _401
REMARK  165  A    between atoms: _401  and  _402
REMARK  166  A    between atoms: _404  and  _406
REMARK  167  A    between atoms: _406  and  _407
REMARK  168  A    between atoms: _406  and  _409
REMARK  169  A    between atoms: _409  and  _410
REMARK  170  A    between atoms: _413  and  _415
REMARK  171  A    between atoms: _415  and  _416
REMARK  172  A    between atoms: _418  and  _420
REMARK  173  A    between atoms: _420  and  _421
REMARK  174  A    between atoms: _423  and  _425
REMARK  175  A    between atoms: _425  and  _426
REMARK  176  A    between atoms: _425  and  _428
REMARK  177  A    between atoms: _428  and  _429
REMARK  178  A    between atoms: _432  and  _434
REMARK  179  A    between atoms: _434  and  _435
REMARK  180  A    between atoms: _437  and  _439
REMARK  181  A    between atoms: _439  and  _440
REMARK  182  A    between atoms: _442  and  _444
REMARK  183  A    between atoms: _444  and  _445
REMARK  184  A    between atoms: _444  and  _447
REMARK  185  A    between atoms: _447  and  _448
REMARK  186  A    between atoms: _454  and  _456
REMARK  187  A    between atoms: _456  and  _457
REMARK  188  A    between atoms: _456  and  _459
REMARK  189  A    between atoms: _459  and  _460
REMARK  190  A    between atoms: _463  and  _465
REMARK  191  A    between atoms: _465  and  _466
REMARK  192  A    between atoms: _465  and  _468
REMARK  193  A    between atoms: _471  and  _473
REMARK  194  A    between atoms: _473  and  _474
REMARK  195  A    between atoms: _473  and  _476
REMARK  196  A    between atoms: _476  and  _477
REMARK  197  A    between atoms: _480  and  _482
REMARK  198  A    between atoms: _482  and  _483
REMARK  199  A    between atoms: _482  and  _485
REMARK  200  A    between atoms: _485  and  _486
REMARK  201  A    between atoms: _490  and  _491
REMARK  202  A    between atoms: _496  and  _498
REMARK  203  A    between atoms: _498  and  _499
REMARK  204  A    between atoms: _498  and  _501
REMARK  205  A    between atoms: _504  and  _506
REMARK  206  A    between atoms: _506  and  _507
REMARK  207  A    between atoms: _506  and  _509
REMARK  208  A    between atoms: _509  and  _510
REMARK  209  A    between atoms: _515  and  _517
REMARK  210  A    between atoms: _517  and  _518
REMARK  211  A    between atoms: _517  and  _520
REMARK  212  A    between atoms: _520  and  _521
REMARK  213  A    between atoms: _524  and  _526
REMARK  214  A    between atoms: _526  and  _527
REMARK  215  A    between atoms: _526  and  _529
REMARK  216  A    between atoms: _529  and  _530
REMARK  217  A    between atoms: _533  and  _535
REMARK  218  A    between atoms: _535  and  _536
REMARK  219  A    between atoms: _538  and  _540
REMARK  220  A    between atoms: _540  and  _541
REMARK  221  A    between atoms: _540  and  _543
REMARK  222  A    between atoms: _543  and  _544
REMARK  223  A    between atoms: _544  and  _545
REMARK  224  A    between atoms: _545  and  _546
REMARK                            x       y       z     vdW  Elec       q    Type
REMARK                         _______ _______ _______ _____ _____    ______ ____
ROOT
ATOM      1  O   HOH     1     -10.706   9.908  35.745  0.00  0.00    +0.000 OA
ENDROOT
TORSDOF 0
