REMARK  Name = ../refined-set-2016/2q8z/2q8z_pocket.pdb
REMARK  218 active torsions:
REMARK  status: ('A' for Active; 'I' for Inactive)
REMARK    1  A    between atoms: _1  and  _3
REMARK    2  A    between atoms: _3  and  _4
REMARK    3  A    between atoms: _3  and  _6
REMARK    4  A    between atoms: _8  and  _10
REMARK    5  A    between atoms: _10  and  _11
REMARK    6  A    between atoms: _10  and  _13
REMARK    7  A    between atoms: _13  and  _14
REMARK    8  A    between atoms: _17  and  _19
REMARK    9  A    between atoms: _19  and  _20
REMARK   10  A    between atoms: _22  and  _24
REMARK   11  A    between atoms: _24  and  _25
REMARK   12  A    between atoms: _24  and  _27
REMARK   13  A    between atoms: _27  and  _28
REMARK   14  A    between atoms: _31  and  _33
REMARK   15  A    between atoms: _33  and  _34
REMARK   16  A    between atoms: _33  and  _36
REMARK   17  A    between atoms: _36  and  _37
REMARK   18  A    between atoms: _40  and  _42
REMARK   19  A    between atoms: _42  and  _43
REMARK   20  A    between atoms: _42  and  _45
REMARK   21  A    between atoms: _45  and  _46
REMARK   22  A    between atoms: _46  and  _47
REMARK   23  A    between atoms: _47  and  _48
REMARK   24  A    between atoms: _48  and  _49
REMARK   25  A    between atoms: _53  and  _55
REMARK   26  A    between atoms: _55  and  _56
REMARK   27  A    between atoms: _55  and  _58
REMARK   28  A    between atoms: _58  and  _59
REMARK   29  A    between atoms: _59  and  _60
REMARK   30  A    between atoms: _62  and  _64
REMARK   31  A    between atoms: _64  and  _65
REMARK   32  A    between atoms: _64  and  _67
REMARK   33  A    between atoms: _67  and  _68
REMARK   34  A    between atoms: _73  and  _75
REMARK   35  A    between atoms: _75  and  _76
REMARK   36  A    between atoms: _75  and  _78
REMARK   37  A    between atoms: _78  and  _79
REMARK   38  A    between atoms: _85  and  _87
REMARK   39  A    between atoms: _87  and  _88
REMARK   40  A    between atoms: _91  and  _93
REMARK   41  A    between atoms: _93  and  _94
REMARK   42  A    between atoms: _93  and  _96
REMARK   43  A    between atoms: _96  and  _97
REMARK   44  A    between atoms: _103  and  _105
REMARK   45  A    between atoms: _105  and  _106
REMARK   46  A    between atoms: _105  and  _108
REMARK   47  A    between atoms: _108  and  _109
REMARK   48  A    between atoms: _112  and  _114
REMARK   49  A    between atoms: _114  and  _115
REMARK   50  A    between atoms: _114  and  _117
REMARK   51  A    between atoms: _117  and  _118
REMARK   52  A    between atoms: _118  and  _119
REMARK   53  A    between atoms: _121  and  _123
REMARK   54  A    between atoms: _123  and  _124
REMARK   55  A    between atoms: _123  and  _126
REMARK   56  A    between atoms: _126  and  _127
REMARK   57  A    between atoms: _127  and  _128
REMARK   58  A    between atoms: _128  and  _129
REMARK   59  A    between atoms: _129  and  _130
REMARK   60  A    between atoms: _134  and  _136
REMARK   61  A    between atoms: _136  and  _137
REMARK   62  A    between atoms: _136  and  _139
REMARK   63  A    between atoms: _139  and  _140
REMARK   64  A    between atoms: _143  and  _145
REMARK   65  A    between atoms: _145  and  _146
REMARK   66  A    between atoms: _145  and  _148
REMARK   67  A    between atoms: _148  and  _149
REMARK   68  A    between atoms: _152  and  _154
REMARK   69  A    between atoms: _154  and  _155
REMARK   70  A    between atoms: _154  and  _157
REMARK   71  A    between atoms: _160  and  _162
REMARK   72  A    between atoms: _162  and  _163
REMARK   73  A    between atoms: _162  and  _165
REMARK   74  A    between atoms: _165  and  _166
REMARK   75  A    between atoms: _166  and  _167
REMARK   76  A    between atoms: _167  and  _168
REMARK   77  A    between atoms: _168  and  _169
REMARK   78  A    between atoms: _173  and  _175
REMARK   79  A    between atoms: _175  and  _176
REMARK   80  A    between atoms: _175  and  _178
REMARK   81  A    between atoms: _178  and  _179
REMARK   82  A    between atoms: _182  and  _184
REMARK   83  A    between atoms: _184  and  _185
REMARK   84  A    between atoms: _184  and  _187
REMARK   85  A    between atoms: _187  and  _188
REMARK   86  A    between atoms: _191  and  _193
REMARK   87  A    between atoms: _193  and  _194
REMARK   88  A    between atoms: _193  and  _196
REMARK   89  A    between atoms: _196  and  _197
REMARK   90  A    between atoms: _202  and  _204
REMARK   91  A    between atoms: _204  and  _205
REMARK   92  A    between atoms: _204  and  _207
REMARK   93  A    between atoms: _207  and  _208
REMARK   94  A    between atoms: _210  and  _212
REMARK   95  A    between atoms: _212  and  _213
REMARK   96  A    between atoms: _212  and  _215
REMARK   97  A    between atoms: _215  and  _216
REMARK   98  A    between atoms: _216  and  _217
REMARK   99  A    between atoms: _222  and  _224
REMARK  100  A    between atoms: _224  and  _225
REMARK  101  A    between atoms: _224  and  _227
REMARK  102  A    between atoms: _230  and  _232
REMARK  103  A    between atoms: _232  and  _233
REMARK  104  A    between atoms: _232  and  _235
REMARK  105  A    between atoms: _238  and  _240
REMARK  106  A    between atoms: _240  and  _241
REMARK  107  A    between atoms: _243  and  _245
REMARK  108  A    between atoms: _245  and  _246
REMARK  109  A    between atoms: _249  and  _251
REMARK  110  A    between atoms: _251  and  _252
REMARK  111  A    between atoms: _251  and  _254
REMARK  112  A    between atoms: _254  and  _255
REMARK  113  A    between atoms: _260  and  _262
REMARK  114  A    between atoms: _262  and  _263
REMARK  115  A    between atoms: _262  and  _265
REMARK  116  A    between atoms: _265  and  _266
REMARK  117  A    between atoms: _268  and  _270
REMARK  118  A    between atoms: _270  and  _271
REMARK  119  A    between atoms: _270  and  _273
REMARK  120  A    between atoms: _273  and  _274
REMARK  121  A    between atoms: _277  and  _279
REMARK  122  A    between atoms: _279  and  _280
REMARK  123  A    between atoms: _279  and  _282
REMARK  124  A    between atoms: _282  and  _283
REMARK  125  A    between atoms: _286  and  _287
REMARK  126  A    between atoms: _292  and  _294
REMARK  127  A    between atoms: _294  and  _295
REMARK  128  A    between atoms: _297  and  _299
REMARK  129  A    between atoms: _299  and  _300
REMARK  130  A    between atoms: _299  and  _302
REMARK  131  A    between atoms: _302  and  _303
REMARK  132  A    between atoms: _306  and  _308
REMARK  133  A    between atoms: _308  and  _309
REMARK  134  A    between atoms: _311  and  _313
REMARK  135  A    between atoms: _313  and  _314
REMARK  136  A    between atoms: _317  and  _319
REMARK  137  A    between atoms: _319  and  _320
REMARK  138  A    between atoms: _319  and  _322
REMARK  139  A    between atoms: _322  and  _323
REMARK  140  A    between atoms: _323  and  _324
REMARK  141  A    between atoms: _329  and  _331
REMARK  142  A    between atoms: _331  and  _332
REMARK  143  A    between atoms: _331  and  _334
REMARK  144  A    between atoms: _334  and  _335
REMARK  145  A    between atoms: _340  and  _342
REMARK  146  A    between atoms: _342  and  _343
REMARK  147  A    between atoms: _345  and  _347
REMARK  148  A    between atoms: _347  and  _348
REMARK  149  A    between atoms: _347  and  _350
REMARK  150  A    between atoms: _350  and  _351
REMARK  151  A    between atoms: _356  and  _358
REMARK  152  A    between atoms: _358  and  _359
REMARK  153  A    between atoms: _358  and  _361
REMARK  154  A    between atoms: _361  and  _362
REMARK  155  A    between atoms: _365  and  _367
REMARK  156  A    between atoms: _367  and  _368
REMARK  157  A    between atoms: _370  and  _372
REMARK  158  A    between atoms: _372  and  _373
REMARK  159  A    between atoms: _372  and  _375
REMARK  160  A    between atoms: _375  and  _376
REMARK  161  A    between atoms: _376  and  _377
REMARK  162  A    between atoms: _377  and  _378
REMARK  163  A    between atoms: _387  and  _389
REMARK  164  A    between atoms: _389  and  _390
REMARK  165  A    between atoms: _393  and  _395
REMARK  166  A    between atoms: _395  and  _396
REMARK  167  A    between atoms: _395  and  _398
REMARK  168  A    between atoms: _398  and  _399
REMARK  169  A    between atoms: _402  and  _404
REMARK  170  A    between atoms: _404  and  _405
REMARK  171  A    between atoms: _404  and  _407
REMARK  172  A    between atoms: _407  and  _408
REMARK  173  A    between atoms: _411  and  _413
REMARK  174  A    between atoms: _413  and  _414
REMARK  175  A    between atoms: _413  and  _416
REMARK  176  A    between atoms: _416  and  _417
REMARK  177  A    between atoms: _417  and  _418
REMARK  178  A    between atoms: _418  and  _419
REMARK  179  A    between atoms: _419  and  _420
REMARK  180  A    between atoms: _424  and  _426
REMARK  181  A    between atoms: _426  and  _427
REMARK  182  A    between atoms: _426  and  _429
REMARK  183  A    between atoms: _429  and  _430
REMARK  184  A    between atoms: _435  and  _437
REMARK  185  A    between atoms: _437  and  _438
REMARK  186  A    between atoms: _437  and  _440
REMARK  187  A    between atoms: _440  and  _441
REMARK  188  A    between atoms: _444  and  _446
REMARK  189  A    between atoms: _446  and  _447
REMARK  190  A    between atoms: _446  and  _449
REMARK  191  A    between atoms: _449  and  _450
REMARK  192  A    between atoms: _453  and  _455
REMARK  193  A    between atoms: _455  and  _456
REMARK  194  A    between atoms: _458  and  _460
REMARK  195  A    between atoms: _460  and  _461
REMARK  196  A    between atoms: _460  and  _463
REMARK  197  A    between atoms: _463  and  _464
REMARK  198  A    between atoms: _469  and  _471
REMARK  199  A    between atoms: _471  and  _472
REMARK  200  A    between atoms: _471  and  _474
REMARK  201  A    between atoms: _474  and  _475
REMARK  202  A    between atoms: _478  and  _480
REMARK  203  A    between atoms: _480  and  _481
REMARK  204  A    between atoms: _480  and  _483
REMARK  205  A    between atoms: _486  and  _488
REMARK  206  A    between atoms: _488  and  _489
REMARK  207  A    between atoms: _488  and  _491
REMARK  208  A    between atoms: _491  and  _492
REMARK  209  A    between atoms: _497  and  _499
REMARK  210  A    between atoms: _499  and  _500
REMARK  211  A    between atoms: _499  and  _502
REMARK  212  A    between atoms: _502  and  _503
REMARK  213  A    between atoms: _508  and  _509
REMARK  214  A    between atoms: _511  and  _513
REMARK  215  A    between atoms: _513  and  _514
REMARK  216  A    between atoms: _513  and  _516
REMARK  217  A    between atoms: _516  and  _517
REMARK  218  A    between atoms: _517  and  _518
REMARK                            x       y       z     vdW  Elec       q    Type
REMARK                         _______ _______ _______ _____ _____    ______ ____
ROOT
ATOM      1  C   GLY A   3      10.303 -29.934 -31.975  0.00  0.00    +0.243 C 
ATOM      2  N   LEU A   4      11.556 -29.494 -32.024  0.00  0.00    -0.297 N 
ATOM      3  H   LEU A   4      11.750 -28.479 -31.910  0.00  0.00    +0.150 HD
ATOM      4  O   GLY A   3      10.015 -31.108 -32.183  0.00  0.00    -0.273 OA
ENDROOT
BRANCH   2   5
ATOM      5  CA  LEU A   4      12.665 -30.422 -32.237  0.00  0.00    +0.149 C 
BRANCH   5   6
ATOM      6  C   LEU A   4      13.551 -30.387 -30.998  0.00  0.00    +0.241 C 
ATOM      7  N   ASP A   5      13.260 -31.299 -30.082  0.00  0.00    -0.298 N 
ATOM      8  H   ASP A   5      12.527 -32.002 -30.306  0.00  0.00    +0.150 HD
ATOM      9  O   LEU A   4      14.471 -29.563 -30.891  0.00  0.00    -0.273 OA
BRANCH   7  10
ATOM     10  CA  ASP A   5      13.903 -31.373 -28.788  0.00  0.00    +0.148 C 
BRANCH  10  11
ATOM     11  C   ASP A   5      14.482 -32.799 -28.634  0.00  0.00    +0.227 C 
ATOM     12  O   ASP A   5      13.929 -33.620 -27.912  0.00  0.00    -0.286 OA
ENDBRANCH  10  11
BRANCH  10  13
ATOM     13  CB  ASP A   5      12.841 -31.117 -27.699  0.00  0.00    +0.142 C 
BRANCH  13  14
ATOM     14  CG  ASP A   5      12.353 -29.664 -27.653  0.00  0.00    +0.367 C 
ATOM     15  OD2 ASP A   5      11.411 -29.425 -26.876  0.00  0.00    -0.246 OA
ATOM     16  OD1 ASP A   5      12.904 -28.773 -28.341  0.00  0.00    -0.246 OA
ENDBRANCH  13  14
ENDBRANCH  10  13
ENDBRANCH   7  10
ENDBRANCH   5   6
BRANCH   5  17
ATOM     17  CB  LEU A   4      13.445 -30.018 -33.492  0.00  0.00    +0.029 C 
BRANCH  17  18
ATOM     18  CG  LEU A   4      14.609 -30.909 -33.939  0.00  0.00    +0.002 C 
ATOM     19  CD2 LEU A   4      14.137 -32.346 -34.181  0.00  0.00    +0.000 C 
ATOM     20  CD1 LEU A   4      15.226 -30.294 -35.207  0.00  0.00    +0.000 C 
ENDBRANCH  17  18
ENDBRANCH   5  17
ENDBRANCH   2   5
BRANCH   1  21
ATOM     21  CA  GLY A   3       9.214 -28.908 -31.744  0.00  0.00    +0.176 C 
BRANCH  21  23
ATOM     22  C   ILE A   2       8.184 -28.431 -33.918  0.00  0.00    +0.241 C 
ATOM     23  N   GLY A   3       8.148 -29.063 -32.751  0.00  0.00    -0.295 N 
ATOM     24  H   GLY A   3       7.343 -29.687 -32.540  0.00  0.00    +0.150 HD
ATOM     25  O   ILE A   2       9.146 -27.721 -34.266  0.00  0.00    -0.273 OA
BRANCH  22  26
ATOM     26  CA  ILE A   2       6.981 -28.683 -34.850  0.00  0.00    +0.148 C 
BRANCH  26  29
ATOM     27  C   CYS A   1       5.390 -26.911 -34.483  0.00  0.00    +0.239 C 
ATOM     28  O   CYS A   1       4.999 -27.499 -33.459  0.00  0.00    -0.274 OA
ATOM     29  N   ILE A   2       6.367 -27.414 -35.233  0.00  0.00    -0.297 N 
ATOM     30  H   ILE A   2       6.690 -26.909 -36.083  0.00  0.00    +0.150 HD
BRANCH  27  31
ATOM     31  CA  CYS A   1       4.744 -25.601 -34.937  0.00  0.00    +0.156 C 
BRANCH  31  32
ATOM     32  N   CYS A   1       3.330 -25.852 -35.237  0.00  0.00    -0.237 NA
ATOM     33  H   CYS A   1       2.682 -26.026 -34.443  0.00  0.00    +0.142 HD
ENDBRANCH  31  32
BRANCH  31  34
ATOM     34  CB  CYS A   1       4.811 -24.566 -33.808  0.00  0.00    +0.095 C 
ATOM     35  SG  CYS A   1       6.502 -24.288 -33.169  0.00  0.00    -0.080 S 
ENDBRANCH  31  34
ENDBRANCH  27  31
ENDBRANCH  26  29
BRANCH  26  36
ATOM     36  CB  ILE A   2       7.334 -29.531 -36.094  0.00  0.00    +0.027 C 
ATOM     37  CG2 ILE A   2       8.150 -30.792 -35.683  0.00  0.00    +0.002 C 
BRANCH  36  38
ATOM     38  CG1 ILE A   2       6.039 -29.942 -36.836  0.00  0.00    +0.002 C 
ATOM     39  CD1 ILE A   2       6.298 -30.794 -38.082  0.00  0.00    +0.000 C 
ENDBRANCH  36  38
ENDBRANCH  26  36
ENDBRANCH  22  26
ENDBRANCH  21  23
ENDBRANCH   1  21
TORSDOF 17
REMARK  Name = ../refined-set-2016/2q8z/2q8z_pocket.pdb
REMARK  218 active torsions:
REMARK  status: ('A' for Active; 'I' for Inactive)
REMARK    1  A    between atoms: _1  and  _3
REMARK    2  A    between atoms: _3  and  _4
REMARK    3  A    between atoms: _3  and  _6
REMARK    4  A    between atoms: _8  and  _10
REMARK    5  A    between atoms: _10  and  _11
REMARK    6  A    between atoms: _10  and  _13
REMARK    7  A    between atoms: _13  and  _14
REMARK    8  A    between atoms: _17  and  _19
REMARK    9  A    between atoms: _19  and  _20
REMARK   10  A    between atoms: _22  and  _24
REMARK   11  A    between atoms: _24  and  _25
REMARK   12  A    between atoms: _24  and  _27
REMARK   13  A    between atoms: _27  and  _28
REMARK   14  A    between atoms: _31  and  _33
REMARK   15  A    between atoms: _33  and  _34
REMARK   16  A    between atoms: _33  and  _36
REMARK   17  A    between atoms: _36  and  _37
REMARK   18  A    between atoms: _40  and  _42
REMARK   19  A    between atoms: _42  and  _43
REMARK   20  A    between atoms: _42  and  _45
REMARK   21  A    between atoms: _45  and  _46
REMARK   22  A    between atoms: _46  and  _47
REMARK   23  A    between atoms: _47  and  _48
REMARK   24  A    between atoms: _48  and  _49
REMARK   25  A    between atoms: _53  and  _55
REMARK   26  A    between atoms: _55  and  _56
REMARK   27  A    between atoms: _55  and  _58
REMARK   28  A    between atoms: _58  and  _59
REMARK   29  A    between atoms: _59  and  _60
REMARK   30  A    between atoms: _62  and  _64
REMARK   31  A    between atoms: _64  and  _65
REMARK   32  A    between atoms: _64  and  _67
REMARK   33  A    between atoms: _67  and  _68
REMARK   34  A    between atoms: _73  and  _75
REMARK   35  A    between atoms: _75  and  _76
REMARK   36  A    between atoms: _75  and  _78
REMARK   37  A    between atoms: _78  and  _79
REMARK   38  A    between atoms: _85  and  _87
REMARK   39  A    between atoms: _87  and  _88
REMARK   40  A    between atoms: _91  and  _93
REMARK   41  A    between atoms: _93  and  _94
REMARK   42  A    between atoms: _93  and  _96
REMARK   43  A    between atoms: _96  and  _97
REMARK   44  A    between atoms: _103  and  _105
REMARK   45  A    between atoms: _105  and  _106
REMARK   46  A    between atoms: _105  and  _108
REMARK   47  A    between atoms: _108  and  _109
REMARK   48  A    between atoms: _112  and  _114
REMARK   49  A    between atoms: _114  and  _115
REMARK   50  A    between atoms: _114  and  _117
REMARK   51  A    between atoms: _117  and  _118
REMARK   52  A    between atoms: _118  and  _119
REMARK   53  A    between atoms: _121  and  _123
REMARK   54  A    between atoms: _123  and  _124
REMARK   55  A    between atoms: _123  and  _126
REMARK   56  A    between atoms: _126  and  _127
REMARK   57  A    between atoms: _127  and  _128
REMARK   58  A    between atoms: _128  and  _129
REMARK   59  A    between atoms: _129  and  _130
REMARK   60  A    between atoms: _134  and  _136
REMARK   61  A    between atoms: _136  and  _137
REMARK   62  A    between atoms: _136  and  _139
REMARK   63  A    between atoms: _139  and  _140
REMARK   64  A    between atoms: _143  and  _145
REMARK   65  A    between atoms: _145  and  _146
REMARK   66  A    between atoms: _145  and  _148
REMARK   67  A    between atoms: _148  and  _149
REMARK   68  A    between atoms: _152  and  _154
REMARK   69  A    between atoms: _154  and  _155
REMARK   70  A    between atoms: _154  and  _157
REMARK   71  A    between atoms: _160  and  _162
REMARK   72  A    between atoms: _162  and  _163
REMARK   73  A    between atoms: _162  and  _165
REMARK   74  A    between atoms: _165  and  _166
REMARK   75  A    between atoms: _166  and  _167
REMARK   76  A    between atoms: _167  and  _168
REMARK   77  A    between atoms: _168  and  _169
REMARK   78  A    between atoms: _173  and  _175
REMARK   79  A    between atoms: _175  and  _176
REMARK   80  A    between atoms: _175  and  _178
REMARK   81  A    between atoms: _178  and  _179
REMARK   82  A    between atoms: _182  and  _184
REMARK   83  A    between atoms: _184  and  _185
REMARK   84  A    between atoms: _184  and  _187
REMARK   85  A    between atoms: _187  and  _188
REMARK   86  A    between atoms: _191  and  _193
REMARK   87  A    between atoms: _193  and  _194
REMARK   88  A    between atoms: _193  and  _196
REMARK   89  A    between atoms: _196  and  _197
REMARK   90  A    between atoms: _202  and  _204
REMARK   91  A    between atoms: _204  and  _205
REMARK   92  A    between atoms: _204  and  _207
REMARK   93  A    between atoms: _207  and  _208
REMARK   94  A    between atoms: _210  and  _212
REMARK   95  A    between atoms: _212  and  _213
REMARK   96  A    between atoms: _212  and  _215
REMARK   97  A    between atoms: _215  and  _216
REMARK   98  A    between atoms: _216  and  _217
REMARK   99  A    between atoms: _222  and  _224
REMARK  100  A    between atoms: _224  and  _225
REMARK  101  A    between atoms: _224  and  _227
REMARK  102  A    between atoms: _230  and  _232
REMARK  103  A    between atoms: _232  and  _233
REMARK  104  A    between atoms: _232  and  _235
REMARK  105  A    between atoms: _238  and  _240
REMARK  106  A    between atoms: _240  and  _241
REMARK  107  A    between atoms: _243  and  _245
REMARK  108  A    between atoms: _245  and  _246
REMARK  109  A    between atoms: _249  and  _251
REMARK  110  A    between atoms: _251  and  _252
REMARK  111  A    between atoms: _251  and  _254
REMARK  112  A    between atoms: _254  and  _255
REMARK  113  A    between atoms: _260  and  _262
REMARK  114  A    between atoms: _262  and  _263
REMARK  115  A    between atoms: _262  and  _265
REMARK  116  A    between atoms: _265  and  _266
REMARK  117  A    between atoms: _268  and  _270
REMARK  118  A    between atoms: _270  and  _271
REMARK  119  A    between atoms: _270  and  _273
REMARK  120  A    between atoms: _273  and  _274
REMARK  121  A    between atoms: _277  and  _279
REMARK  122  A    between atoms: _279  and  _280
REMARK  123  A    between atoms: _279  and  _282
REMARK  124  A    between atoms: _282  and  _283
REMARK  125  A    between atoms: _286  and  _287
REMARK  126  A    between atoms: _292  and  _294
REMARK  127  A    between atoms: _294  and  _295
REMARK  128  A    between atoms: _297  and  _299
REMARK  129  A    between atoms: _299  and  _300
REMARK  130  A    between atoms: _299  and  _302
REMARK  131  A    between atoms: _302  and  _303
REMARK  132  A    between atoms: _306  and  _308
REMARK  133  A    between atoms: _308  and  _309
REMARK  134  A    between atoms: _311  and  _313
REMARK  135  A    between atoms: _313  and  _314
REMARK  136  A    between atoms: _317  and  _319
REMARK  137  A    between atoms: _319  and  _320
REMARK  138  A    between atoms: _319  and  _322
REMARK  139  A    between atoms: _322  and  _323
REMARK  140  A    between atoms: _323  and  _324
REMARK  141  A    between atoms: _329  and  _331
REMARK  142  A    between atoms: _331  and  _332
REMARK  143  A    between atoms: _331  and  _334
REMARK  144  A    between atoms: _334  and  _335
REMARK  145  A    between atoms: _340  and  _342
REMARK  146  A    between atoms: _342  and  _343
REMARK  147  A    between atoms: _345  and  _347
REMARK  148  A    between atoms: _347  and  _348
REMARK  149  A    between atoms: _347  and  _350
REMARK  150  A    between atoms: _350  and  _351
REMARK  151  A    between atoms: _356  and  _358
REMARK  152  A    between atoms: _358  and  _359
REMARK  153  A    between atoms: _358  and  _361
REMARK  154  A    between atoms: _361  and  _362
REMARK  155  A    between atoms: _365  and  _367
REMARK  156  A    between atoms: _367  and  _368
REMARK  157  A    between atoms: _370  and  _372
REMARK  158  A    between atoms: _372  and  _373
REMARK  159  A    between atoms: _372  and  _375
REMARK  160  A    between atoms: _375  and  _376
REMARK  161  A    between atoms: _376  and  _377
REMARK  162  A    between atoms: _377  and  _378
REMARK  163  A    between atoms: _387  and  _389
REMARK  164  A    between atoms: _389  and  _390
REMARK  165  A    between atoms: _393  and  _395
REMARK  166  A    between atoms: _395  and  _396
REMARK  167  A    between atoms: _395  and  _398
REMARK  168  A    between atoms: _398  and  _399
REMARK  169  A    between atoms: _402  and  _404
REMARK  170  A    between atoms: _404  and  _405
REMARK  171  A    between atoms: _404  and  _407
REMARK  172  A    between atoms: _407  and  _408
REMARK  173  A    between atoms: _411  and  _413
REMARK  174  A    between atoms: _413  and  _414
REMARK  175  A    between atoms: _413  and  _416
REMARK  176  A    between atoms: _416  and  _417
REMARK  177  A    between atoms: _417  and  _418
REMARK  178  A    between atoms: _418  and  _419
REMARK  179  A    between atoms: _419  and  _420
REMARK  180  A    between atoms: _424  and  _426
REMARK  181  A    between atoms: _426  and  _427
REMARK  182  A    between atoms: _426  and  _429
REMARK  183  A    between atoms: _429  and  _430
REMARK  184  A    between atoms: _435  and  _437
REMARK  185  A    between atoms: _437  and  _438
REMARK  186  A    between atoms: _437  and  _440
REMARK  187  A    between atoms: _440  and  _441
REMARK  188  A    between atoms: _444  and  _446
REMARK  189  A    between atoms: _446  and  _447
REMARK  190  A    between atoms: _446  and  _449
REMARK  191  A    between atoms: _449  and  _450
REMARK  192  A    between atoms: _453  and  _455
REMARK  193  A    between atoms: _455  and  _456
REMARK  194  A    between atoms: _458  and  _460
REMARK  195  A    between atoms: _460  and  _461
REMARK  196  A    between atoms: _460  and  _463
REMARK  197  A    between atoms: _463  and  _464
REMARK  198  A    between atoms: _469  and  _471
REMARK  199  A    between atoms: _471  and  _472
REMARK  200  A    between atoms: _471  and  _474
REMARK  201  A    between atoms: _474  and  _475
REMARK  202  A    between atoms: _478  and  _480
REMARK  203  A    between atoms: _480  and  _481
REMARK  204  A    between atoms: _480  and  _483
REMARK  205  A    between atoms: _486  and  _488
REMARK  206  A    between atoms: _488  and  _489
REMARK  207  A    between atoms: _488  and  _491
REMARK  208  A    between atoms: _491  and  _492
REMARK  209  A    between atoms: _497  and  _499
REMARK  210  A    between atoms: _499  and  _500
REMARK  211  A    between atoms: _499  and  _502
REMARK  212  A    between atoms: _502  and  _503
REMARK  213  A    between atoms: _508  and  _509
REMARK  214  A    between atoms: _511  and  _513
REMARK  215  A    between atoms: _513  and  _514
REMARK  216  A    between atoms: _513  and  _516
REMARK  217  A    between atoms: _516  and  _517
REMARK  218  A    between atoms: _517  and  _518
REMARK                            x       y       z     vdW  Elec       q    Type
REMARK                         _______ _______ _______ _____ _____    ______ ____
ROOT
ATOM      1  C   ASN A   3      16.153 -25.961 -27.105  0.00  0.00    +0.241 C 
ATOM      2  N   PHE A   4      16.816 -24.850 -26.809  0.00  0.00    -0.297 N 
ATOM      3  H   PHE A   4      16.284 -23.962 -26.709  0.00  0.00    +0.150 HD
ATOM      4  O   ASN A   3      16.673 -27.077 -27.136  0.00  0.00    -0.273 OA
ENDROOT
BRANCH   2   5
ATOM      5  CA  PHE A   4      18.264 -24.827 -26.618  0.00  0.00    +0.153 C 
BRANCH   5   6
ATOM      6  C   PHE A   4      18.742 -25.867 -25.589  0.00  0.00    +0.241 C 
ATOM      7  N   ALA A   5      17.926 -26.110 -24.569  0.00  0.00    -0.297 N 
ATOM      8  H   ALA A   5      16.978 -25.682 -24.550  0.00  0.00    +0.150 HD
ATOM      9  O   PHE A   4      19.864 -26.392 -25.681  0.00  0.00    -0.273 OA
BRANCH   7  10
ATOM     10  CA  ALA A   5      18.357 -26.978 -23.473  0.00  0.00    +0.149 C 
ATOM     11  CB  ALA A   5      17.244 -27.088 -22.413  0.00  0.00    +0.031 C 
BRANCH  10  12
ATOM     12  C   ALA A   5      18.782 -28.354 -23.973  0.00  0.00    +0.241 C 
ATOM     13  O   ALA A   5      19.663 -29.014 -23.388  0.00  0.00    -0.273 OA
ATOM     14  N   PHE A   6      18.173 -28.797 -25.073  0.00  0.00    -0.298 N 
ATOM     15  H   PHE A   6      17.476 -28.197 -25.558  0.00  0.00    +0.150 HD
BRANCH  14  16
ATOM     16  CA  PHE A   6      18.482 -30.119 -25.596  0.00  0.00    +0.141 C 
BRANCH  16  17
ATOM     17  C   PHE A   6      19.796 -30.187 -26.348  0.00  0.00    +0.227 C 
ATOM     18  O   PHE A   6      20.350 -31.275 -26.540  0.00  0.00    -0.286 OA
ENDBRANCH  16  17
BRANCH  16  19
ATOM     19  CB  PHE A   6      17.307 -30.633 -26.446  0.00  0.00    +0.054 C 
BRANCH  19  20
ATOM     20  CG  PHE A   6      16.093 -30.925 -25.615  0.00  0.00    -0.020 A 
ATOM     21  CD2 PHE A   6      15.915 -32.199 -25.104  0.00  0.00    -0.004 A 
ATOM     22  CE2 PHE A   6      14.830 -32.496 -24.304  0.00  0.00    -0.000 A 
ATOM     23  CZ  PHE A   6      13.925 -31.484 -23.955  0.00  0.00    -0.000 A 
ATOM     24  CE1 PHE A   6      14.093 -30.192 -24.428  0.00  0.00    -0.000 A 
ATOM     25  CD1 PHE A   6      15.198 -29.906 -25.242  0.00  0.00    -0.004 A 
ENDBRANCH  19  20
ENDBRANCH  16  19
ENDBRANCH  14  16
ENDBRANCH  10  12
ENDBRANCH   7  10
ENDBRANCH   5   6
BRANCH   5  26
ATOM     26  CB  PHE A   4      18.678 -23.413 -26.181  0.00  0.00    +0.055 C 
BRANCH  26  27
ATOM     27  CG  PHE A   4      20.142 -23.254 -25.985  0.00  0.00    -0.020 A 
ATOM     28  CD2 PHE A   4      20.711 -23.357 -24.703  0.00  0.00    -0.004 A 
ATOM     29  CE2 PHE A   4      22.100 -23.232 -24.540  0.00  0.00    -0.000 A 
ATOM     30  CZ  PHE A   4      22.905 -22.938 -25.636  0.00  0.00    -0.000 A 
ATOM     31  CE1 PHE A   4      22.346 -22.813 -26.907  0.00  0.00    -0.000 A 
ATOM     32  CD1 PHE A   4      20.968 -22.964 -27.083  0.00  0.00    -0.004 A 
ENDBRANCH  26  27
ENDBRANCH   5  26
ENDBRANCH   2   5
BRANCH   1  33
ATOM     33  CA  ASN A   3      14.681 -25.777 -27.402  0.00  0.00    +0.158 C 
BRANCH  33  35
ATOM     34  C   MET A   2      14.520 -25.326 -29.745  0.00  0.00    +0.241 C 
ATOM     35  N   ASN A   3      14.386 -26.220 -28.768  0.00  0.00    -0.297 N 
ATOM     36  H   ASN A   3      14.084 -27.195 -28.966  0.00  0.00    +0.150 HD
ATOM     37  O   MET A   2      14.787 -24.147 -29.531  0.00  0.00    -0.273 OA
BRANCH  34  38
ATOM     38  CA  MET A   2      14.284 -25.809 -31.169  0.00  0.00    +0.149 C 
BRANCH  38  41
ATOM     39  C   LYS A   1      11.973 -25.508 -31.909  0.00  0.00    +0.238 C 
ATOM     40  O   LYS A   1      11.664 -26.656 -31.629  0.00  0.00    -0.274 OA
ATOM     41  N   MET A   2      13.183 -25.002 -31.708  0.00  0.00    -0.297 N 
ATOM     42  H   MET A   2      13.357 -24.003 -31.939  0.00  0.00    +0.150 HD
BRANCH  39  43
ATOM     43  CA  LYS A   1      10.919 -24.586 -32.493  0.00  0.00    +0.145 C 
BRANCH  43  44
ATOM     44  N   LYS A   1      10.393 -25.181 -33.741  0.00  0.00    -0.238 NA
ATOM     45  H   LYS A   1       9.893 -26.092 -33.696  0.00  0.00    +0.142 HD
ENDBRANCH  43  44
BRANCH  43  46
ATOM     46  CB  LYS A   1       9.796 -24.402 -31.464  0.00  0.00    +0.026 C 
BRANCH  46  47
ATOM     47  CG  LYS A   1      10.251 -23.938 -30.071  0.00  0.00    -0.000 C 
BRANCH  47  48
ATOM     48  CD  LYS A   1       9.086 -23.346 -29.261  0.00  0.00    -0.024 C 
BRANCH  48  49
ATOM     49  CE  LYS A   1       8.327 -24.437 -28.530  0.00  0.00    -0.086 C 
BRANCH  49  50
ATOM     50  NZ  LYS A   1       9.200 -25.249 -27.607  0.00  0.00    +0.380 N 
ATOM     51  HZ1 LYS A   1       9.621 -24.624 -26.891  0.00  0.00    -0.089 HD
ATOM     52  HZ2 LYS A   1       8.624 -25.977 -27.138  0.00  0.00    -0.089 HD
ATOM     53  HZ3 LYS A   1       9.955 -25.705 -28.158  0.00  0.00    -0.089 HD
ENDBRANCH  49  50
ENDBRANCH  48  49
ENDBRANCH  47  48
ENDBRANCH  46  47
ENDBRANCH  43  46
ENDBRANCH  39  43
ENDBRANCH  38  41
BRANCH  38  54
ATOM     54  CB  MET A   2      15.556 -25.615 -32.001  0.00  0.00    +0.041 C 
BRANCH  54  55
ATOM     55  CG  MET A   2      15.675 -26.450 -33.283  0.00  0.00    +0.060 C 
BRANCH  55  56
ATOM     56  SD  MET A   2      14.300 -26.304 -34.477  0.00  0.00    -0.139 S 
ATOM     57  CE  MET A   2      14.508 -24.593 -34.972  0.00  0.00    +0.069 C 
ENDBRANCH  55  56
ENDBRANCH  54  55
ENDBRANCH  38  54
ENDBRANCH  34  38
ENDBRANCH  33  35
BRANCH  33  58
ATOM     58  CB  ASN A   3      13.830 -26.510 -26.369  0.00  0.00    +0.114 C 
BRANCH  58  59
ATOM     59  CG  ASN A   3      13.927 -25.861 -24.993  0.00  0.00    +0.222 C 
ATOM     60  ND2 ASN A   3      12.790 -25.543 -24.403  0.00  0.00    -0.329 N 
ATOM     61 HD21 ASN A   3      12.799 -25.081 -23.471  0.00  0.00    +0.145 HD
ATOM     62 HD22 ASN A   3      11.885 -25.754 -24.870  0.00  0.00    +0.145 HD
ATOM     63  OD1 ASN A   3      15.022 -25.633 -24.483  0.00  0.00    -0.275 OA
ENDBRANCH  58  59
ENDBRANCH  33  58
ENDBRANCH   1  33
TORSDOF 26
REMARK  Name = ../refined-set-2016/2q8z/2q8z_pocket.pdb
REMARK  218 active torsions:
REMARK  status: ('A' for Active; 'I' for Inactive)
REMARK    1  A    between atoms: _1  and  _3
REMARK    2  A    between atoms: _3  and  _4
REMARK    3  A    between atoms: _3  and  _6
REMARK    4  A    between atoms: _8  and  _10
REMARK    5  A    between atoms: _10  and  _11
REMARK    6  A    between atoms: _10  and  _13
REMARK    7  A    between atoms: _13  and  _14
REMARK    8  A    between atoms: _17  and  _19
REMARK    9  A    between atoms: _19  and  _20
REMARK   10  A    between atoms: _22  and  _24
REMARK   11  A    between atoms: _24  and  _25
REMARK   12  A    between atoms: _24  and  _27
REMARK   13  A    between atoms: _27  and  _28
REMARK   14  A    between atoms: _31  and  _33
REMARK   15  A    between atoms: _33  and  _34
REMARK   16  A    between atoms: _33  and  _36
REMARK   17  A    between atoms: _36  and  _37
REMARK   18  A    between atoms: _40  and  _42
REMARK   19  A    between atoms: _42  and  _43
REMARK   20  A    between atoms: _42  and  _45
REMARK   21  A    between atoms: _45  and  _46
REMARK   22  A    between atoms: _46  and  _47
REMARK   23  A    between atoms: _47  and  _48
REMARK   24  A    between atoms: _48  and  _49
REMARK   25  A    between atoms: _53  and  _55
REMARK   26  A    between atoms: _55  and  _56
REMARK   27  A    between atoms: _55  and  _58
REMARK   28  A    between atoms: _58  and  _59
REMARK   29  A    between atoms: _59  and  _60
REMARK   30  A    between atoms: _62  and  _64
REMARK   31  A    between atoms: _64  and  _65
REMARK   32  A    between atoms: _64  and  _67
REMARK   33  A    between atoms: _67  and  _68
REMARK   34  A    between atoms: _73  and  _75
REMARK   35  A    between atoms: _75  and  _76
REMARK   36  A    between atoms: _75  and  _78
REMARK   37  A    between atoms: _78  and  _79
REMARK   38  A    between atoms: _85  and  _87
REMARK   39  A    between atoms: _87  and  _88
REMARK   40  A    between atoms: _91  and  _93
REMARK   41  A    between atoms: _93  and  _94
REMARK   42  A    between atoms: _93  and  _96
REMARK   43  A    between atoms: _96  and  _97
REMARK   44  A    between atoms: _103  and  _105
REMARK   45  A    between atoms: _105  and  _106
REMARK   46  A    between atoms: _105  and  _108
REMARK   47  A    between atoms: _108  and  _109
REMARK   48  A    between atoms: _112  and  _114
REMARK   49  A    between atoms: _114  and  _115
REMARK   50  A    between atoms: _114  and  _117
REMARK   51  A    between atoms: _117  and  _118
REMARK   52  A    between atoms: _118  and  _119
REMARK   53  A    between atoms: _121  and  _123
REMARK   54  A    between atoms: _123  and  _124
REMARK   55  A    between atoms: _123  and  _126
REMARK   56  A    between atoms: _126  and  _127
REMARK   57  A    between atoms: _127  and  _128
REMARK   58  A    between atoms: _128  and  _129
REMARK   59  A    between atoms: _129  and  _130
REMARK   60  A    between atoms: _134  and  _136
REMARK   61  A    between atoms: _136  and  _137
REMARK   62  A    between atoms: _136  and  _139
REMARK   63  A    between atoms: _139  and  _140
REMARK   64  A    between atoms: _143  and  _145
REMARK   65  A    between atoms: _145  and  _146
REMARK   66  A    between atoms: _145  and  _148
REMARK   67  A    between atoms: _148  and  _149
REMARK   68  A    between atoms: _152  and  _154
REMARK   69  A    between atoms: _154  and  _155
REMARK   70  A    between atoms: _154  and  _157
REMARK   71  A    between atoms: _160  and  _162
REMARK   72  A    between atoms: _162  and  _163
REMARK   73  A    between atoms: _162  and  _165
REMARK   74  A    between atoms: _165  and  _166
REMARK   75  A    between atoms: _166  and  _167
REMARK   76  A    between atoms: _167  and  _168
REMARK   77  A    between atoms: _168  and  _169
REMARK   78  A    between atoms: _173  and  _175
REMARK   79  A    between atoms: _175  and  _176
REMARK   80  A    between atoms: _175  and  _178
REMARK   81  A    between atoms: _178  and  _179
REMARK   82  A    between atoms: _182  and  _184
REMARK   83  A    between atoms: _184  and  _185
REMARK   84  A    between atoms: _184  and  _187
REMARK   85  A    between atoms: _187  and  _188
REMARK   86  A    between atoms: _191  and  _193
REMARK   87  A    between atoms: _193  and  _194
REMARK   88  A    between atoms: _193  and  _196
REMARK   89  A    between atoms: _196  and  _197
REMARK   90  A    between atoms: _202  and  _204
REMARK   91  A    between atoms: _204  and  _205
REMARK   92  A    between atoms: _204  and  _207
REMARK   93  A    between atoms: _207  and  _208
REMARK   94  A    between atoms: _210  and  _212
REMARK   95  A    between atoms: _212  and  _213
REMARK   96  A    between atoms: _212  and  _215
REMARK   97  A    between atoms: _215  and  _216
REMARK   98  A    between atoms: _216  and  _217
REMARK   99  A    between atoms: _222  and  _224
REMARK  100  A    between atoms: _224  and  _225
REMARK  101  A    between atoms: _224  and  _227
REMARK  102  A    between atoms: _230  and  _232
REMARK  103  A    between atoms: _232  and  _233
REMARK  104  A    between atoms: _232  and  _235
REMARK  105  A    between atoms: _238  and  _240
REMARK  106  A    between atoms: _240  and  _241
REMARK  107  A    between atoms: _243  and  _245
REMARK  108  A    between atoms: _245  and  _246
REMARK  109  A    between atoms: _249  and  _251
REMARK  110  A    between atoms: _251  and  _252
REMARK  111  A    between atoms: _251  and  _254
REMARK  112  A    between atoms: _254  and  _255
REMARK  113  A    between atoms: _260  and  _262
REMARK  114  A    between atoms: _262  and  _263
REMARK  115  A    between atoms: _262  and  _265
REMARK  116  A    between atoms: _265  and  _266
REMARK  117  A    between atoms: _268  and  _270
REMARK  118  A    between atoms: _270  and  _271
REMARK  119  A    between atoms: _270  and  _273
REMARK  120  A    between atoms: _273  and  _274
REMARK  121  A    between atoms: _277  and  _279
REMARK  122  A    between atoms: _279  and  _280
REMARK  123  A    between atoms: _279  and  _282
REMARK  124  A    between atoms: _282  and  _283
REMARK  125  A    between atoms: _286  and  _287
REMARK  126  A    between atoms: _292  and  _294
REMARK  127  A    between atoms: _294  and  _295
REMARK  128  A    between atoms: _297  and  _299
REMARK  129  A    between atoms: _299  and  _300
REMARK  130  A    between atoms: _299  and  _302
REMARK  131  A    between atoms: _302  and  _303
REMARK  132  A    between atoms: _306  and  _308
REMARK  133  A    between atoms: _308  and  _309
REMARK  134  A    between atoms: _311  and  _313
REMARK  135  A    between atoms: _313  and  _314
REMARK  136  A    between atoms: _317  and  _319
REMARK  137  A    between atoms: _319  and  _320
REMARK  138  A    between atoms: _319  and  _322
REMARK  139  A    between atoms: _322  and  _323
REMARK  140  A    between atoms: _323  and  _324
REMARK  141  A    between atoms: _329  and  _331
REMARK  142  A    between atoms: _331  and  _332
REMARK  143  A    between atoms: _331  and  _334
REMARK  144  A    between atoms: _334  and  _335
REMARK  145  A    between atoms: _340  and  _342
REMARK  146  A    between atoms: _342  and  _343
REMARK  147  A    between atoms: _345  and  _347
REMARK  148  A    between atoms: _347  and  _348
REMARK  149  A    between atoms: _347  and  _350
REMARK  150  A    between atoms: _350  and  _351
REMARK  151  A    between atoms: _356  and  _358
REMARK  152  A    between atoms: _358  and  _359
REMARK  153  A    between atoms: _358  and  _361
REMARK  154  A    between atoms: _361  and  _362
REMARK  155  A    between atoms: _365  and  _367
REMARK  156  A    between atoms: _367  and  _368
REMARK  157  A    between atoms: _370  and  _372
REMARK  158  A    between atoms: _372  and  _373
REMARK  159  A    between atoms: _372  and  _375
REMARK  160  A    between atoms: _375  and  _376
REMARK  161  A    between atoms: _376  and  _377
REMARK  162  A    between atoms: _377  and  _378
REMARK  163  A    between atoms: _387  and  _389
REMARK  164  A    between atoms: _389  and  _390
REMARK  165  A    between atoms: _393  and  _395
REMARK  166  A    between atoms: _395  and  _396
REMARK  167  A    between atoms: _395  and  _398
REMARK  168  A    between atoms: _398  and  _399
REMARK  169  A    between atoms: _402  and  _404
REMARK  170  A    between atoms: _404  and  _405
REMARK  171  A    between atoms: _404  and  _407
REMARK  172  A    between atoms: _407  and  _408
REMARK  173  A    between atoms: _411  and  _413
REMARK  174  A    between atoms: _413  and  _414
REMARK  175  A    between atoms: _413  and  _416
REMARK  176  A    between atoms: _416  and  _417
REMARK  177  A    between atoms: _417  and  _418
REMARK  178  A    between atoms: _418  and  _419
REMARK  179  A    between atoms: _419  and  _420
REMARK  180  A    between atoms: _424  and  _426
REMARK  181  A    between atoms: _426  and  _427
REMARK  182  A    between atoms: _426  and  _429
REMARK  183  A    between atoms: _429  and  _430
REMARK  184  A    between atoms: _435  and  _437
REMARK  185  A    between atoms: _437  and  _438
REMARK  186  A    between atoms: _437  and  _440
REMARK  187  A    between atoms: _440  and  _441
REMARK  188  A    between atoms: _444  and  _446
REMARK  189  A    between atoms: _446  and  _447
REMARK  190  A    between atoms: _446  and  _449
REMARK  191  A    between atoms: _449  and  _450
REMARK  192  A    between atoms: _453  and  _455
REMARK  193  A    between atoms: _455  and  _456
REMARK  194  A    between atoms: _458  and  _460
REMARK  195  A    between atoms: _460  and  _461
REMARK  196  A    between atoms: _460  and  _463
REMARK  197  A    between atoms: _463  and  _464
REMARK  198  A    between atoms: _469  and  _471
REMARK  199  A    between atoms: _471  and  _472
REMARK  200  A    between atoms: _471  and  _474
REMARK  201  A    between atoms: _474  and  _475
REMARK  202  A    between atoms: _478  and  _480
REMARK  203  A    between atoms: _480  and  _481
REMARK  204  A    between atoms: _480  and  _483
REMARK  205  A    between atoms: _486  and  _488
REMARK  206  A    between atoms: _488  and  _489
REMARK  207  A    between atoms: _488  and  _491
REMARK  208  A    between atoms: _491  and  _492
REMARK  209  A    between atoms: _497  and  _499
REMARK  210  A    between atoms: _499  and  _500
REMARK  211  A    between atoms: _499  and  _502
REMARK  212  A    between atoms: _502  and  _503
REMARK  213  A    between atoms: _508  and  _509
REMARK  214  A    between atoms: _511  and  _513
REMARK  215  A    between atoms: _513  and  _514
REMARK  216  A    between atoms: _513  and  _516
REMARK  217  A    between atoms: _516  and  _517
REMARK  218  A    between atoms: _517  and  _518
REMARK                            x       y       z     vdW  Elec       q    Type
REMARK                         _______ _______ _______ _____ _____    ______ ____
ROOT
ATOM      1  CA  MET A   2      15.870 -20.430 -24.827  0.00  0.00    +0.149 C 
ENDROOT
BRANCH   1   3
ATOM      2  C   ASP A   1      14.395 -21.678 -26.311  0.00  0.00    +0.239 C 
ATOM      3  N   MET A   2      14.757 -20.516 -25.772  0.00  0.00    -0.297 N 
ATOM      4  H   MET A   2      14.238 -19.652 -26.028  0.00  0.00    +0.150 HD
ATOM      5  O   ASP A   1      14.912 -22.769 -26.002  0.00  0.00    -0.274 OA
BRANCH   2   6
ATOM      6  CA  ASP A   1      13.299 -21.589 -27.362  0.00  0.00    +0.156 C 
BRANCH   6   7
ATOM      7  N   ASP A   1      13.950 -21.668 -28.659  0.00  0.00    -0.238 NA
ATOM      8  H   ASP A   1      14.138 -22.598 -29.086  0.00  0.00    +0.142 HD
ENDBRANCH   6   7
BRANCH   6   9
ATOM      9  CB  ASP A   1      12.269 -22.717 -27.220  0.00  0.00    +0.140 C 
BRANCH   9  10
ATOM     10  CG  ASP A   1      11.427 -22.600 -25.947  0.00  0.00    +0.367 C 
ATOM     11  OD2 ASP A   1      11.630 -21.658 -25.130  0.00  0.00    -0.246 OA
ATOM     12  OD1 ASP A   1      10.518 -23.446 -25.788  0.00  0.00    -0.246 OA
ENDBRANCH   9  10
ENDBRANCH   6   9
ENDBRANCH   2   6
ENDBRANCH   1   3
BRANCH   1  13
ATOM     13  C   MET A   2      15.483 -19.670 -23.540  0.00  0.00    +0.241 C 
ATOM     14  O   MET A   2      16.227 -19.699 -22.563  0.00  0.00    -0.273 OA
ATOM     15  N   LYS A   3      14.329 -19.008 -23.544  0.00  0.00    -0.298 N 
ATOM     16  H   LYS A   3      13.751 -19.025 -24.409  0.00  0.00    +0.150 HD
BRANCH  15  17
ATOM     17  CA  LYS A   3      13.836 -18.261 -22.396  0.00  0.00    +0.137 C 
BRANCH  17  18
ATOM     18  C   LYS A   3      14.878 -17.324 -21.817  0.00  0.00    +0.227 C 
ATOM     19  O   LYS A   3      15.059 -17.236 -20.598  0.00  0.00    -0.286 OA
ENDBRANCH  17  18
BRANCH  17  20
ATOM     20  CB  LYS A   3      13.244 -19.193 -21.331  0.00  0.00    +0.028 C 
BRANCH  20  21
ATOM     21  CG  LYS A   3      12.029 -19.933 -21.899  0.00  0.00    -0.000 C 
BRANCH  21  22
ATOM     22  CD  LYS A   3      11.490 -20.995 -20.930  0.00  0.00    -0.024 C 
BRANCH  22  23
ATOM     23  CE  LYS A   3      10.339 -21.849 -21.503  0.00  0.00    -0.086 C 
BRANCH  23  24
ATOM     24  NZ  LYS A   3      10.731 -22.582 -22.758  0.00  0.00    +0.380 N 
ATOM     25  HZ1 LYS A   3      11.529 -23.217 -22.552  0.00  0.00    -0.089 HD
ATOM     26  HZ2 LYS A   3       9.922 -23.139 -23.100  0.00  0.00    -0.089 HD
ATOM     27  HZ3 LYS A   3      11.012 -21.895 -23.486  0.00  0.00    -0.089 HD
ENDBRANCH  23  24
ENDBRANCH  22  23
ENDBRANCH  21  22
ENDBRANCH  20  21
ENDBRANCH  17  20
ENDBRANCH  15  17
ENDBRANCH   1  13
BRANCH   1  28
ATOM     28  CB  MET A   2      17.059 -19.743 -25.502  0.00  0.00    +0.041 C 
BRANCH  28  29
ATOM     29  CG  MET A   2      18.392 -19.920 -24.766  0.00  0.00    +0.060 C 
BRANCH  29  30
ATOM     30  SD  MET A   2      19.735 -19.358 -25.839  0.00  0.00    -0.139 S 
ATOM     31  CE  MET A   2      21.117 -19.702 -24.741  0.00  0.00    +0.069 C 
ENDBRANCH  29  30
ENDBRANCH  28  29
ENDBRANCH   1  28
TORSDOF 16
REMARK  Name = ../refined-set-2016/2q8z/2q8z_pocket.pdb
REMARK  218 active torsions:
REMARK  status: ('A' for Active; 'I' for Inactive)
REMARK    1  A    between atoms: _1  and  _3
REMARK    2  A    between atoms: _3  and  _4
REMARK    3  A    between atoms: _3  and  _6
REMARK    4  A    between atoms: _8  and  _10
REMARK    5  A    between atoms: _10  and  _11
REMARK    6  A    between atoms: _10  and  _13
REMARK    7  A    between atoms: _13  and  _14
REMARK    8  A    between atoms: _17  and  _19
REMARK    9  A    between atoms: _19  and  _20
REMARK   10  A    between atoms: _22  and  _24
REMARK   11  A    between atoms: _24  and  _25
REMARK   12  A    between atoms: _24  and  _27
REMARK   13  A    between atoms: _27  and  _28
REMARK   14  A    between atoms: _31  and  _33
REMARK   15  A    between atoms: _33  and  _34
REMARK   16  A    between atoms: _33  and  _36
REMARK   17  A    between atoms: _36  and  _37
REMARK   18  A    between atoms: _40  and  _42
REMARK   19  A    between atoms: _42  and  _43
REMARK   20  A    between atoms: _42  and  _45
REMARK   21  A    between atoms: _45  and  _46
REMARK   22  A    between atoms: _46  and  _47
REMARK   23  A    between atoms: _47  and  _48
REMARK   24  A    between atoms: _48  and  _49
REMARK   25  A    between atoms: _53  and  _55
REMARK   26  A    between atoms: _55  and  _56
REMARK   27  A    between atoms: _55  and  _58
REMARK   28  A    between atoms: _58  and  _59
REMARK   29  A    between atoms: _59  and  _60
REMARK   30  A    between atoms: _62  and  _64
REMARK   31  A    between atoms: _64  and  _65
REMARK   32  A    between atoms: _64  and  _67
REMARK   33  A    between atoms: _67  and  _68
REMARK   34  A    between atoms: _73  and  _75
REMARK   35  A    between atoms: _75  and  _76
REMARK   36  A    between atoms: _75  and  _78
REMARK   37  A    between atoms: _78  and  _79
REMARK   38  A    between atoms: _85  and  _87
REMARK   39  A    between atoms: _87  and  _88
REMARK   40  A    between atoms: _91  and  _93
REMARK   41  A    between atoms: _93  and  _94
REMARK   42  A    between atoms: _93  and  _96
REMARK   43  A    between atoms: _96  and  _97
REMARK   44  A    between atoms: _103  and  _105
REMARK   45  A    between atoms: _105  and  _106
REMARK   46  A    between atoms: _105  and  _108
REMARK   47  A    between atoms: _108  and  _109
REMARK   48  A    between atoms: _112  and  _114
REMARK   49  A    between atoms: _114  and  _115
REMARK   50  A    between atoms: _114  and  _117
REMARK   51  A    between atoms: _117  and  _118
REMARK   52  A    between atoms: _118  and  _119
REMARK   53  A    between atoms: _121  and  _123
REMARK   54  A    between atoms: _123  and  _124
REMARK   55  A    between atoms: _123  and  _126
REMARK   56  A    between atoms: _126  and  _127
REMARK   57  A    between atoms: _127  and  _128
REMARK   58  A    between atoms: _128  and  _129
REMARK   59  A    between atoms: _129  and  _130
REMARK   60  A    between atoms: _134  and  _136
REMARK   61  A    between atoms: _136  and  _137
REMARK   62  A    between atoms: _136  and  _139
REMARK   63  A    between atoms: _139  and  _140
REMARK   64  A    between atoms: _143  and  _145
REMARK   65  A    between atoms: _145  and  _146
REMARK   66  A    between atoms: _145  and  _148
REMARK   67  A    between atoms: _148  and  _149
REMARK   68  A    between atoms: _152  and  _154
REMARK   69  A    between atoms: _154  and  _155
REMARK   70  A    between atoms: _154  and  _157
REMARK   71  A    between atoms: _160  and  _162
REMARK   72  A    between atoms: _162  and  _163
REMARK   73  A    between atoms: _162  and  _165
REMARK   74  A    between atoms: _165  and  _166
REMARK   75  A    between atoms: _166  and  _167
REMARK   76  A    between atoms: _167  and  _168
REMARK   77  A    between atoms: _168  and  _169
REMARK   78  A    between atoms: _173  and  _175
REMARK   79  A    between atoms: _175  and  _176
REMARK   80  A    between atoms: _175  and  _178
REMARK   81  A    between atoms: _178  and  _179
REMARK   82  A    between atoms: _182  and  _184
REMARK   83  A    between atoms: _184  and  _185
REMARK   84  A    between atoms: _184  and  _187
REMARK   85  A    between atoms: _187  and  _188
REMARK   86  A    between atoms: _191  and  _193
REMARK   87  A    between atoms: _193  and  _194
REMARK   88  A    between atoms: _193  and  _196
REMARK   89  A    between atoms: _196  and  _197
REMARK   90  A    between atoms: _202  and  _204
REMARK   91  A    between atoms: _204  and  _205
REMARK   92  A    between atoms: _204  and  _207
REMARK   93  A    between atoms: _207  and  _208
REMARK   94  A    between atoms: _210  and  _212
REMARK   95  A    between atoms: _212  and  _213
REMARK   96  A    between atoms: _212  and  _215
REMARK   97  A    between atoms: _215  and  _216
REMARK   98  A    between atoms: _216  and  _217
REMARK   99  A    between atoms: _222  and  _224
REMARK  100  A    between atoms: _224  and  _225
REMARK  101  A    between atoms: _224  and  _227
REMARK  102  A    between atoms: _230  and  _232
REMARK  103  A    between atoms: _232  and  _233
REMARK  104  A    between atoms: _232  and  _235
REMARK  105  A    between atoms: _238  and  _240
REMARK  106  A    between atoms: _240  and  _241
REMARK  107  A    between atoms: _243  and  _245
REMARK  108  A    between atoms: _245  and  _246
REMARK  109  A    between atoms: _249  and  _251
REMARK  110  A    between atoms: _251  and  _252
REMARK  111  A    between atoms: _251  and  _254
REMARK  112  A    between atoms: _254  and  _255
REMARK  113  A    between atoms: _260  and  _262
REMARK  114  A    between atoms: _262  and  _263
REMARK  115  A    between atoms: _262  and  _265
REMARK  116  A    between atoms: _265  and  _266
REMARK  117  A    between atoms: _268  and  _270
REMARK  118  A    between atoms: _270  and  _271
REMARK  119  A    between atoms: _270  and  _273
REMARK  120  A    between atoms: _273  and  _274
REMARK  121  A    between atoms: _277  and  _279
REMARK  122  A    between atoms: _279  and  _280
REMARK  123  A    between atoms: _279  and  _282
REMARK  124  A    between atoms: _282  and  _283
REMARK  125  A    between atoms: _286  and  _287
REMARK  126  A    between atoms: _292  and  _294
REMARK  127  A    between atoms: _294  and  _295
REMARK  128  A    between atoms: _297  and  _299
REMARK  129  A    between atoms: _299  and  _300
REMARK  130  A    between atoms: _299  and  _302
REMARK  131  A    between atoms: _302  and  _303
REMARK  132  A    between atoms: _306  and  _308
REMARK  133  A    between atoms: _308  and  _309
REMARK  134  A    between atoms: _311  and  _313
REMARK  135  A    between atoms: _313  and  _314
REMARK  136  A    between atoms: _317  and  _319
REMARK  137  A    between atoms: _319  and  _320
REMARK  138  A    between atoms: _319  and  _322
REMARK  139  A    between atoms: _322  and  _323
REMARK  140  A    between atoms: _323  and  _324
REMARK  141  A    between atoms: _329  and  _331
REMARK  142  A    between atoms: _331  and  _332
REMARK  143  A    between atoms: _331  and  _334
REMARK  144  A    between atoms: _334  and  _335
REMARK  145  A    between atoms: _340  and  _342
REMARK  146  A    between atoms: _342  and  _343
REMARK  147  A    between atoms: _345  and  _347
REMARK  148  A    between atoms: _347  and  _348
REMARK  149  A    between atoms: _347  and  _350
REMARK  150  A    between atoms: _350  and  _351
REMARK  151  A    between atoms: _356  and  _358
REMARK  152  A    between atoms: _358  and  _359
REMARK  153  A    between atoms: _358  and  _361
REMARK  154  A    between atoms: _361  and  _362
REMARK  155  A    between atoms: _365  and  _367
REMARK  156  A    between atoms: _367  and  _368
REMARK  157  A    between atoms: _370  and  _372
REMARK  158  A    between atoms: _372  and  _373
REMARK  159  A    between atoms: _372  and  _375
REMARK  160  A    between atoms: _375  and  _376
REMARK  161  A    between atoms: _376  and  _377
REMARK  162  A    between atoms: _377  and  _378
REMARK  163  A    between atoms: _387  and  _389
REMARK  164  A    between atoms: _389  and  _390
REMARK  165  A    between atoms: _393  and  _395
REMARK  166  A    between atoms: _395  and  _396
REMARK  167  A    between atoms: _395  and  _398
REMARK  168  A    between atoms: _398  and  _399
REMARK  169  A    between atoms: _402  and  _404
REMARK  170  A    between atoms: _404  and  _405
REMARK  171  A    between atoms: _404  and  _407
REMARK  172  A    between atoms: _407  and  _408
REMARK  173  A    between atoms: _411  and  _413
REMARK  174  A    between atoms: _413  and  _414
REMARK  175  A    between atoms: _413  and  _416
REMARK  176  A    between atoms: _416  and  _417
REMARK  177  A    between atoms: _417  and  _418
REMARK  178  A    between atoms: _418  and  _419
REMARK  179  A    between atoms: _419  and  _420
REMARK  180  A    between atoms: _424  and  _426
REMARK  181  A    between atoms: _426  and  _427
REMARK  182  A    between atoms: _426  and  _429
REMARK  183  A    between atoms: _429  and  _430
REMARK  184  A    between atoms: _435  and  _437
REMARK  185  A    between atoms: _437  and  _438
REMARK  186  A    between atoms: _437  and  _440
REMARK  187  A    between atoms: _440  and  _441
REMARK  188  A    between atoms: _444  and  _446
REMARK  189  A    between atoms: _446  and  _447
REMARK  190  A    between atoms: _446  and  _449
REMARK  191  A    between atoms: _449  and  _450
REMARK  192  A    between atoms: _453  and  _455
REMARK  193  A    between atoms: _455  and  _456
REMARK  194  A    between atoms: _458  and  _460
REMARK  195  A    between atoms: _460  and  _461
REMARK  196  A    between atoms: _460  and  _463
REMARK  197  A    between atoms: _463  and  _464
REMARK  198  A    between atoms: _469  and  _471
REMARK  199  A    between atoms: _471  and  _472
REMARK  200  A    between atoms: _471  and  _474
REMARK  201  A    between atoms: _474  and  _475
REMARK  202  A    between atoms: _478  and  _480
REMARK  203  A    between atoms: _480  and  _481
REMARK  204  A    between atoms: _480  and  _483
REMARK  205  A    between atoms: _486  and  _488
REMARK  206  A    between atoms: _488  and  _489
REMARK  207  A    between atoms: _488  and  _491
REMARK  208  A    between atoms: _491  and  _492
REMARK  209  A    between atoms: _497  and  _499
REMARK  210  A    between atoms: _499  and  _500
REMARK  211  A    between atoms: _499  and  _502
REMARK  212  A    between atoms: _502  and  _503
REMARK  213  A    between atoms: _508  and  _509
REMARK  214  A    between atoms: _511  and  _513
REMARK  215  A    between atoms: _513  and  _514
REMARK  216  A    between atoms: _513  and  _516
REMARK  217  A    between atoms: _516  and  _517
REMARK  218  A    between atoms: _517  and  _518
REMARK                            x       y       z     vdW  Elec       q    Type
REMARK                         _______ _______ _______ _____ _____    ______ ____
ROOT
ATOM      1  CA  THR A   1      11.510 -16.922 -26.389  0.00  0.00    +0.160 C 
ENDROOT
BRANCH   1   2
ATOM      2  N   THR A   1      12.340 -17.163 -27.575  0.00  0.00    -0.237 NA
ATOM      3  H   THR A   1      12.991 -17.974 -27.595  0.00  0.00    +0.142 HD
ENDBRANCH   1   2
BRANCH   1   4
ATOM      4  C   THR A   1      12.341 -16.163 -25.350  0.00  0.00    +0.227 C 
ATOM      5  O   THR A   1      13.554 -16.343 -25.270  0.00  0.00    -0.287 OA
ENDBRANCH   1   4
BRANCH   1   6
ATOM      6  CB  THR A   1      11.020 -18.228 -25.735  0.00  0.00    +0.134 C 
ATOM      7  CG2 THR A   1      10.026 -18.961 -26.656  0.00  0.00    +0.034 C 
BRANCH   6   8
ATOM      8  OG1 THR A   1      12.166 -19.068 -25.517  0.00  0.00    -0.383 OA
ATOM      9  HG1 THR A   1      11.877 -19.916 -25.096  0.00  0.00    +0.210 HD
ENDBRANCH   6   8
ENDBRANCH   1   6
TORSDOF 4
REMARK  Name = ../refined-set-2016/2q8z/2q8z_pocket.pdb
REMARK  218 active torsions:
REMARK  status: ('A' for Active; 'I' for Inactive)
REMARK    1  A    between atoms: _1  and  _3
REMARK    2  A    between atoms: _3  and  _4
REMARK    3  A    between atoms: _3  and  _6
REMARK    4  A    between atoms: _8  and  _10
REMARK    5  A    between atoms: _10  and  _11
REMARK    6  A    between atoms: _10  and  _13
REMARK    7  A    between atoms: _13  and  _14
REMARK    8  A    between atoms: _17  and  _19
REMARK    9  A    between atoms: _19  and  _20
REMARK   10  A    between atoms: _22  and  _24
REMARK   11  A    between atoms: _24  and  _25
REMARK   12  A    between atoms: _24  and  _27
REMARK   13  A    between atoms: _27  and  _28
REMARK   14  A    between atoms: _31  and  _33
REMARK   15  A    between atoms: _33  and  _34
REMARK   16  A    between atoms: _33  and  _36
REMARK   17  A    between atoms: _36  and  _37
REMARK   18  A    between atoms: _40  and  _42
REMARK   19  A    between atoms: _42  and  _43
REMARK   20  A    between atoms: _42  and  _45
REMARK   21  A    between atoms: _45  and  _46
REMARK   22  A    between atoms: _46  and  _47
REMARK   23  A    between atoms: _47  and  _48
REMARK   24  A    between atoms: _48  and  _49
REMARK   25  A    between atoms: _53  and  _55
REMARK   26  A    between atoms: _55  and  _56
REMARK   27  A    between atoms: _55  and  _58
REMARK   28  A    between atoms: _58  and  _59
REMARK   29  A    between atoms: _59  and  _60
REMARK   30  A    between atoms: _62  and  _64
REMARK   31  A    between atoms: _64  and  _65
REMARK   32  A    between atoms: _64  and  _67
REMARK   33  A    between atoms: _67  and  _68
REMARK   34  A    between atoms: _73  and  _75
REMARK   35  A    between atoms: _75  and  _76
REMARK   36  A    between atoms: _75  and  _78
REMARK   37  A    between atoms: _78  and  _79
REMARK   38  A    between atoms: _85  and  _87
REMARK   39  A    between atoms: _87  and  _88
REMARK   40  A    between atoms: _91  and  _93
REMARK   41  A    between atoms: _93  and  _94
REMARK   42  A    between atoms: _93  and  _96
REMARK   43  A    between atoms: _96  and  _97
REMARK   44  A    between atoms: _103  and  _105
REMARK   45  A    between atoms: _105  and  _106
REMARK   46  A    between atoms: _105  and  _108
REMARK   47  A    between atoms: _108  and  _109
REMARK   48  A    between atoms: _112  and  _114
REMARK   49  A    between atoms: _114  and  _115
REMARK   50  A    between atoms: _114  and  _117
REMARK   51  A    between atoms: _117  and  _118
REMARK   52  A    between atoms: _118  and  _119
REMARK   53  A    between atoms: _121  and  _123
REMARK   54  A    between atoms: _123  and  _124
REMARK   55  A    between atoms: _123  and  _126
REMARK   56  A    between atoms: _126  and  _127
REMARK   57  A    between atoms: _127  and  _128
REMARK   58  A    between atoms: _128  and  _129
REMARK   59  A    between atoms: _129  and  _130
REMARK   60  A    between atoms: _134  and  _136
REMARK   61  A    between atoms: _136  and  _137
REMARK   62  A    between atoms: _136  and  _139
REMARK   63  A    between atoms: _139  and  _140
REMARK   64  A    between atoms: _143  and  _145
REMARK   65  A    between atoms: _145  and  _146
REMARK   66  A    between atoms: _145  and  _148
REMARK   67  A    between atoms: _148  and  _149
REMARK   68  A    between atoms: _152  and  _154
REMARK   69  A    between atoms: _154  and  _155
REMARK   70  A    between atoms: _154  and  _157
REMARK   71  A    between atoms: _160  and  _162
REMARK   72  A    between atoms: _162  and  _163
REMARK   73  A    between atoms: _162  and  _165
REMARK   74  A    between atoms: _165  and  _166
REMARK   75  A    between atoms: _166  and  _167
REMARK   76  A    between atoms: _167  and  _168
REMARK   77  A    between atoms: _168  and  _169
REMARK   78  A    between atoms: _173  and  _175
REMARK   79  A    between atoms: _175  and  _176
REMARK   80  A    between atoms: _175  and  _178
REMARK   81  A    between atoms: _178  and  _179
REMARK   82  A    between atoms: _182  and  _184
REMARK   83  A    between atoms: _184  and  _185
REMARK   84  A    between atoms: _184  and  _187
REMARK   85  A    between atoms: _187  and  _188
REMARK   86  A    between atoms: _191  and  _193
REMARK   87  A    between atoms: _193  and  _194
REMARK   88  A    between atoms: _193  and  _196
REMARK   89  A    between atoms: _196  and  _197
REMARK   90  A    between atoms: _202  and  _204
REMARK   91  A    between atoms: _204  and  _205
REMARK   92  A    between atoms: _204  and  _207
REMARK   93  A    between atoms: _207  and  _208
REMARK   94  A    between atoms: _210  and  _212
REMARK   95  A    between atoms: _212  and  _213
REMARK   96  A    between atoms: _212  and  _215
REMARK   97  A    between atoms: _215  and  _216
REMARK   98  A    between atoms: _216  and  _217
REMARK   99  A    between atoms: _222  and  _224
REMARK  100  A    between atoms: _224  and  _225
REMARK  101  A    between atoms: _224  and  _227
REMARK  102  A    between atoms: _230  and  _232
REMARK  103  A    between atoms: _232  and  _233
REMARK  104  A    between atoms: _232  and  _235
REMARK  105  A    between atoms: _238  and  _240
REMARK  106  A    between atoms: _240  and  _241
REMARK  107  A    between atoms: _243  and  _245
REMARK  108  A    between atoms: _245  and  _246
REMARK  109  A    between atoms: _249  and  _251
REMARK  110  A    between atoms: _251  and  _252
REMARK  111  A    between atoms: _251  and  _254
REMARK  112  A    between atoms: _254  and  _255
REMARK  113  A    between atoms: _260  and  _262
REMARK  114  A    between atoms: _262  and  _263
REMARK  115  A    between atoms: _262  and  _265
REMARK  116  A    between atoms: _265  and  _266
REMARK  117  A    between atoms: _268  and  _270
REMARK  118  A    between atoms: _270  and  _271
REMARK  119  A    between atoms: _270  and  _273
REMARK  120  A    between atoms: _273  and  _274
REMARK  121  A    between atoms: _277  and  _279
REMARK  122  A    between atoms: _279  and  _280
REMARK  123  A    between atoms: _279  and  _282
REMARK  124  A    between atoms: _282  and  _283
REMARK  125  A    between atoms: _286  and  _287
REMARK  126  A    between atoms: _292  and  _294
REMARK  127  A    between atoms: _294  and  _295
REMARK  128  A    between atoms: _297  and  _299
REMARK  129  A    between atoms: _299  and  _300
REMARK  130  A    between atoms: _299  and  _302
REMARK  131  A    between atoms: _302  and  _303
REMARK  132  A    between atoms: _306  and  _308
REMARK  133  A    between atoms: _308  and  _309
REMARK  134  A    between atoms: _311  and  _313
REMARK  135  A    between atoms: _313  and  _314
REMARK  136  A    between atoms: _317  and  _319
REMARK  137  A    between atoms: _319  and  _320
REMARK  138  A    between atoms: _319  and  _322
REMARK  139  A    between atoms: _322  and  _323
REMARK  140  A    between atoms: _323  and  _324
REMARK  141  A    between atoms: _329  and  _331
REMARK  142  A    between atoms: _331  and  _332
REMARK  143  A    between atoms: _331  and  _334
REMARK  144  A    between atoms: _334  and  _335
REMARK  145  A    between atoms: _340  and  _342
REMARK  146  A    between atoms: _342  and  _343
REMARK  147  A    between atoms: _345  and  _347
REMARK  148  A    between atoms: _347  and  _348
REMARK  149  A    between atoms: _347  and  _350
REMARK  150  A    between atoms: _350  and  _351
REMARK  151  A    between atoms: _356  and  _358
REMARK  152  A    between atoms: _358  and  _359
REMARK  153  A    between atoms: _358  and  _361
REMARK  154  A    between atoms: _361  and  _362
REMARK  155  A    between atoms: _365  and  _367
REMARK  156  A    between atoms: _367  and  _368
REMARK  157  A    between atoms: _370  and  _372
REMARK  158  A    between atoms: _372  and  _373
REMARK  159  A    between atoms: _372  and  _375
REMARK  160  A    between atoms: _375  and  _376
REMARK  161  A    between atoms: _376  and  _377
REMARK  162  A    between atoms: _377  and  _378
REMARK  163  A    between atoms: _387  and  _389
REMARK  164  A    between atoms: _389  and  _390
REMARK  165  A    between atoms: _393  and  _395
REMARK  166  A    between atoms: _395  and  _396
REMARK  167  A    between atoms: _395  and  _398
REMARK  168  A    between atoms: _398  and  _399
REMARK  169  A    between atoms: _402  and  _404
REMARK  170  A    between atoms: _404  and  _405
REMARK  171  A    between atoms: _404  and  _407
REMARK  172  A    between atoms: _407  and  _408
REMARK  173  A    between atoms: _411  and  _413
REMARK  174  A    between atoms: _413  and  _414
REMARK  175  A    between atoms: _413  and  _416
REMARK  176  A    between atoms: _416  and  _417
REMARK  177  A    between atoms: _417  and  _418
REMARK  178  A    between atoms: _418  and  _419
REMARK  179  A    between atoms: _419  and  _420
REMARK  180  A    between atoms: _424  and  _426
REMARK  181  A    between atoms: _426  and  _427
REMARK  182  A    between atoms: _426  and  _429
REMARK  183  A    between atoms: _429  and  _430
REMARK  184  A    between atoms: _435  and  _437
REMARK  185  A    between atoms: _437  and  _438
REMARK  186  A    between atoms: _437  and  _440
REMARK  187  A    between atoms: _440  and  _441
REMARK  188  A    between atoms: _444  and  _446
REMARK  189  A    between atoms: _446  and  _447
REMARK  190  A    between atoms: _446  and  _449
REMARK  191  A    between atoms: _449  and  _450
REMARK  192  A    between atoms: _453  and  _455
REMARK  193  A    between atoms: _455  and  _456
REMARK  194  A    between atoms: _458  and  _460
REMARK  195  A    between atoms: _460  and  _461
REMARK  196  A    between atoms: _460  and  _463
REMARK  197  A    between atoms: _463  and  _464
REMARK  198  A    between atoms: _469  and  _471
REMARK  199  A    between atoms: _471  and  _472
REMARK  200  A    between atoms: _471  and  _474
REMARK  201  A    between atoms: _474  and  _475
REMARK  202  A    between atoms: _478  and  _480
REMARK  203  A    between atoms: _480  and  _481
REMARK  204  A    between atoms: _480  and  _483
REMARK  205  A    between atoms: _486  and  _488
REMARK  206  A    between atoms: _488  and  _489
REMARK  207  A    between atoms: _488  and  _491
REMARK  208  A    between atoms: _491  and  _492
REMARK  209  A    between atoms: _497  and  _499
REMARK  210  A    between atoms: _499  and  _500
REMARK  211  A    between atoms: _499  and  _502
REMARK  212  A    between atoms: _502  and  _503
REMARK  213  A    between atoms: _508  and  _509
REMARK  214  A    between atoms: _511  and  _513
REMARK  215  A    between atoms: _513  and  _514
REMARK  216  A    between atoms: _513  and  _516
REMARK  217  A    between atoms: _516  and  _517
REMARK  218  A    between atoms: _517  and  _518
REMARK                            x       y       z     vdW  Elec       q    Type
REMARK                         _______ _______ _______ _____ _____    ______ ____
ROOT
ATOM      1  C   LYS A   3       1.931 -19.626 -19.385  0.00  0.00    +0.241 C 
ATOM      2  N   THR A   4       2.648 -20.300 -18.487  0.00  0.00    -0.295 N 
ATOM      3  H   THR A   4       2.710 -19.954 -17.508  0.00  0.00    +0.150 HD
ATOM      4  O   LYS A   3       1.746 -20.029 -20.548  0.00  0.00    -0.273 OA
ENDROOT
BRANCH   2   5
ATOM      5  CA  THR A   4       3.347 -21.521 -18.872  0.00  0.00    +0.176 C 
BRANCH   5   6
ATOM      6  C   THR A   4       2.638 -22.826 -18.461  0.00  0.00    +0.243 C 
ATOM      7  O   THR A   4       1.627 -22.819 -17.753  0.00  0.00    -0.273 OA
ATOM      8  N   THR A   5       3.140 -23.958 -18.935  0.00  0.00    -0.295 N 
ATOM      9  H   THR A   5       4.072 -23.953 -19.397  0.00  0.00    +0.150 HD
BRANCH   8  10
ATOM     10  CA  THR A   5       2.399 -25.214 -18.816  0.00  0.00    +0.176 C 
BRANCH  10  11
ATOM     11  C   THR A   5       2.740 -26.031 -17.573  0.00  0.00    +0.243 C 
ATOM     12  N   ASN A   6       3.770 -25.617 -16.840  0.00  0.00    -0.298 N 
ATOM     13  H   ASN A   6       4.273 -24.747 -17.108  0.00  0.00    +0.150 HD
ATOM     14  O   THR A   5       2.074 -27.040 -17.296  0.00  0.00    -0.273 OA
BRANCH  12  15
ATOM     15  CA  ASN A   6       4.205 -26.365 -15.666  0.00  0.00    +0.146 C 
BRANCH  15  16
ATOM     16  C   ASN A   6       3.099 -26.369 -14.619  0.00  0.00    +0.227 C 
ATOM     17  O   ASN A   6       2.342 -25.406 -14.527  0.00  0.00    -0.286 OA
ENDBRANCH  15  16
BRANCH  15  18
ATOM     18  CB  ASN A   6       5.515 -25.821 -15.086  0.00  0.00    +0.112 C 
BRANCH  18  19
ATOM     19  CG  ASN A   6       5.513 -24.330 -14.942  0.00  0.00    +0.222 C 
ATOM     20  ND2 ASN A   6       5.568 -23.847 -13.702  0.00  0.00    -0.329 N 
ATOM     21 HD21 ASN A   6       5.612 -24.498 -12.892  0.00  0.00    +0.145 HD
ATOM     22 HD22 ASN A   6       5.567 -22.819 -13.544  0.00  0.00    +0.145 HD
ATOM     23  OD1 ASN A   6       5.459 -23.609 -15.945  0.00  0.00    -0.275 OA
ENDBRANCH  18  19
ENDBRANCH  15  18
ENDBRANCH  12  15
ENDBRANCH  10  11
BRANCH  10  24
ATOM     24  CB  THR A   5       2.654 -26.134 -20.033  0.00  0.00    +0.137 C 
ATOM     25  CG2 THR A   5       2.258 -25.455 -21.326  0.00  0.00    +0.034 C 
BRANCH  24  26
ATOM     26  OG1 THR A   5       4.045 -26.434 -20.089  0.00  0.00    -0.382 OA
ATOM     27  HG1 THR A   5       4.223 -27.023 -20.864  0.00  0.00    +0.210 HD
ENDBRANCH  24  26
ENDBRANCH  10  24
ENDBRANCH   8  10
ENDBRANCH   5   6
BRANCH   5  28
ATOM     28  CB  THR A   4       4.808 -21.452 -18.403  0.00  0.00    +0.137 C 
ATOM     29  CG2 THR A   4       5.547 -20.327 -19.149  0.00  0.00    +0.034 C 
BRANCH  28  30
ATOM     30  OG1 THR A   4       4.859 -21.154 -17.001  0.00  0.00    -0.382 OA
ATOM     31  HG1 THR A   4       4.387 -21.863 -16.497  0.00  0.00    +0.210 HD
ENDBRANCH  28  30
ENDBRANCH   5  28
ENDBRANCH   2   5
BRANCH   1  32
ATOM     32  CA  LYS A   3       1.366 -18.290 -18.909  0.00  0.00    +0.149 C 
BRANCH  32  35
ATOM     33  C   VAL A   2       2.359 -16.087 -19.275  0.00  0.00    +0.241 C 
ATOM     34  O   VAL A   2       2.320 -15.818 -18.081  0.00  0.00    -0.273 OA
ATOM     35  N   LYS A   3       1.946 -17.251 -19.765  0.00  0.00    -0.297 N 
ATOM     36  H   LYS A   3       2.037 -17.430 -20.785  0.00  0.00    +0.150 HD
BRANCH  33  37
ATOM     37  CA  VAL A   2       3.022 -15.112 -20.264  0.00  0.00    +0.148 C 
BRANCH  37  40
ATOM     38  C   LEU A   1       5.434 -15.174 -20.639  0.00  0.00    +0.238 C 
ATOM     39  O   LEU A   1       5.629 -14.178 -19.914  0.00  0.00    -0.274 OA
ATOM     40  N   VAL A   2       4.225 -15.695 -20.877  0.00  0.00    -0.297 N 
ATOM     41  H   VAL A   2       4.135 -16.521 -21.502  0.00  0.00    +0.150 HD
BRANCH  38  42
ATOM     42  CA  LEU A   1       6.597 -15.867 -21.318  0.00  0.00    +0.145 C 
BRANCH  42  43
ATOM     43  N   LEU A   1       7.384 -14.940 -22.116  0.00  0.00    -0.238 NA
ATOM     44  H   LEU A   1       8.348 -14.677 -21.829  0.00  0.00    +0.142 HD
ENDBRANCH  42  43
BRANCH  42  45
ATOM     45  CB  LEU A   1       7.462 -16.607 -20.299  0.00  0.00    +0.026 C 
BRANCH  45  46
ATOM     46  CG  LEU A   1       8.705 -17.279 -20.885  0.00  0.00    +0.002 C 
ATOM     47  CD2 LEU A   1       9.455 -17.926 -19.718  0.00  0.00    +0.000 C 
ATOM     48  CD1 LEU A   1       8.364 -18.331 -21.939  0.00  0.00    +0.000 C 
ENDBRANCH  45  46
ENDBRANCH  42  45
ENDBRANCH  38  42
ENDBRANCH  37  40
BRANCH  37  49
ATOM     49  CB  VAL A   2       2.038 -14.602 -21.351  0.00  0.00    +0.027 C 
ATOM     50  CG2 VAL A   2       0.651 -14.256 -20.771  0.00  0.00    +0.002 C 
ATOM     51  CG1 VAL A   2       2.634 -13.336 -22.004  0.00  0.00    +0.002 C 
ENDBRANCH  37  49
ENDBRANCH  33  37
ENDBRANCH  32  35
BRANCH  32  52
ATOM     52  CB  LYS A   3      -0.167 -18.245 -18.980  0.00  0.00    +0.029 C 
BRANCH  52  53
ATOM     53  CG  LYS A   3      -0.799 -19.405 -18.255  0.00  0.00    +0.000 C 
BRANCH  53  54
ATOM     54  CD  LYS A   3      -0.735 -19.232 -16.720  0.00  0.00    -0.024 C 
BRANCH  54  55
ATOM     55  CE  LYS A   3      -1.521 -20.398 -16.057  0.00  0.00    -0.086 C 
BRANCH  55  56
ATOM     56  NZ  LYS A   3      -1.064 -21.780 -16.474  0.00  0.00    +0.380 N 
ATOM     57  HZ1 LYS A   3      -1.640 -22.496 -15.986  0.00  0.00    -0.089 HD
ATOM     58  HZ2 LYS A   3      -0.064 -21.905 -16.218  0.00  0.00    -0.089 HD
ATOM     59  HZ3 LYS A   3      -1.176 -21.885 -17.503  0.00  0.00    -0.089 HD
ENDBRANCH  55  56
ENDBRANCH  54  55
ENDBRANCH  53  54
ENDBRANCH  52  53
ENDBRANCH  32  52
ENDBRANCH   1  32
TORSDOF 26
REMARK  Name = ../refined-set-2016/2q8z/2q8z_pocket.pdb
REMARK  218 active torsions:
REMARK  status: ('A' for Active; 'I' for Inactive)
REMARK    1  A    between atoms: _1  and  _3
REMARK    2  A    between atoms: _3  and  _4
REMARK    3  A    between atoms: _3  and  _6
REMARK    4  A    between atoms: _8  and  _10
REMARK    5  A    between atoms: _10  and  _11
REMARK    6  A    between atoms: _10  and  _13
REMARK    7  A    between atoms: _13  and  _14
REMARK    8  A    between atoms: _17  and  _19
REMARK    9  A    between atoms: _19  and  _20
REMARK   10  A    between atoms: _22  and  _24
REMARK   11  A    between atoms: _24  and  _25
REMARK   12  A    between atoms: _24  and  _27
REMARK   13  A    between atoms: _27  and  _28
REMARK   14  A    between atoms: _31  and  _33
REMARK   15  A    between atoms: _33  and  _34
REMARK   16  A    between atoms: _33  and  _36
REMARK   17  A    between atoms: _36  and  _37
REMARK   18  A    between atoms: _40  and  _42
REMARK   19  A    between atoms: _42  and  _43
REMARK   20  A    between atoms: _42  and  _45
REMARK   21  A    between atoms: _45  and  _46
REMARK   22  A    between atoms: _46  and  _47
REMARK   23  A    between atoms: _47  and  _48
REMARK   24  A    between atoms: _48  and  _49
REMARK   25  A    between atoms: _53  and  _55
REMARK   26  A    between atoms: _55  and  _56
REMARK   27  A    between atoms: _55  and  _58
REMARK   28  A    between atoms: _58  and  _59
REMARK   29  A    between atoms: _59  and  _60
REMARK   30  A    between atoms: _62  and  _64
REMARK   31  A    between atoms: _64  and  _65
REMARK   32  A    between atoms: _64  and  _67
REMARK   33  A    between atoms: _67  and  _68
REMARK   34  A    between atoms: _73  and  _75
REMARK   35  A    between atoms: _75  and  _76
REMARK   36  A    between atoms: _75  and  _78
REMARK   37  A    between atoms: _78  and  _79
REMARK   38  A    between atoms: _85  and  _87
REMARK   39  A    between atoms: _87  and  _88
REMARK   40  A    between atoms: _91  and  _93
REMARK   41  A    between atoms: _93  and  _94
REMARK   42  A    between atoms: _93  and  _96
REMARK   43  A    between atoms: _96  and  _97
REMARK   44  A    between atoms: _103  and  _105
REMARK   45  A    between atoms: _105  and  _106
REMARK   46  A    between atoms: _105  and  _108
REMARK   47  A    between atoms: _108  and  _109
REMARK   48  A    between atoms: _112  and  _114
REMARK   49  A    between atoms: _114  and  _115
REMARK   50  A    between atoms: _114  and  _117
REMARK   51  A    between atoms: _117  and  _118
REMARK   52  A    between atoms: _118  and  _119
REMARK   53  A    between atoms: _121  and  _123
REMARK   54  A    between atoms: _123  and  _124
REMARK   55  A    between atoms: _123  and  _126
REMARK   56  A    between atoms: _126  and  _127
REMARK   57  A    between atoms: _127  and  _128
REMARK   58  A    between atoms: _128  and  _129
REMARK   59  A    between atoms: _129  and  _130
REMARK   60  A    between atoms: _134  and  _136
REMARK   61  A    between atoms: _136  and  _137
REMARK   62  A    between atoms: _136  and  _139
REMARK   63  A    between atoms: _139  and  _140
REMARK   64  A    between atoms: _143  and  _145
REMARK   65  A    between atoms: _145  and  _146
REMARK   66  A    between atoms: _145  and  _148
REMARK   67  A    between atoms: _148  and  _149
REMARK   68  A    between atoms: _152  and  _154
REMARK   69  A    between atoms: _154  and  _155
REMARK   70  A    between atoms: _154  and  _157
REMARK   71  A    between atoms: _160  and  _162
REMARK   72  A    between atoms: _162  and  _163
REMARK   73  A    between atoms: _162  and  _165
REMARK   74  A    between atoms: _165  and  _166
REMARK   75  A    between atoms: _166  and  _167
REMARK   76  A    between atoms: _167  and  _168
REMARK   77  A    between atoms: _168  and  _169
REMARK   78  A    between atoms: _173  and  _175
REMARK   79  A    between atoms: _175  and  _176
REMARK   80  A    between atoms: _175  and  _178
REMARK   81  A    between atoms: _178  and  _179
REMARK   82  A    between atoms: _182  and  _184
REMARK   83  A    between atoms: _184  and  _185
REMARK   84  A    between atoms: _184  and  _187
REMARK   85  A    between atoms: _187  and  _188
REMARK   86  A    between atoms: _191  and  _193
REMARK   87  A    between atoms: _193  and  _194
REMARK   88  A    between atoms: _193  and  _196
REMARK   89  A    between atoms: _196  and  _197
REMARK   90  A    between atoms: _202  and  _204
REMARK   91  A    between atoms: _204  and  _205
REMARK   92  A    between atoms: _204  and  _207
REMARK   93  A    between atoms: _207  and  _208
REMARK   94  A    between atoms: _210  and  _212
REMARK   95  A    between atoms: _212  and  _213
REMARK   96  A    between atoms: _212  and  _215
REMARK   97  A    between atoms: _215  and  _216
REMARK   98  A    between atoms: _216  and  _217
REMARK   99  A    between atoms: _222  and  _224
REMARK  100  A    between atoms: _224  and  _225
REMARK  101  A    between atoms: _224  and  _227
REMARK  102  A    between atoms: _230  and  _232
REMARK  103  A    between atoms: _232  and  _233
REMARK  104  A    between atoms: _232  and  _235
REMARK  105  A    between atoms: _238  and  _240
REMARK  106  A    between atoms: _240  and  _241
REMARK  107  A    between atoms: _243  and  _245
REMARK  108  A    between atoms: _245  and  _246
REMARK  109  A    between atoms: _249  and  _251
REMARK  110  A    between atoms: _251  and  _252
REMARK  111  A    between atoms: _251  and  _254
REMARK  112  A    between atoms: _254  and  _255
REMARK  113  A    between atoms: _260  and  _262
REMARK  114  A    between atoms: _262  and  _263
REMARK  115  A    between atoms: _262  and  _265
REMARK  116  A    between atoms: _265  and  _266
REMARK  117  A    between atoms: _268  and  _270
REMARK  118  A    between atoms: _270  and  _271
REMARK  119  A    between atoms: _270  and  _273
REMARK  120  A    between atoms: _273  and  _274
REMARK  121  A    between atoms: _277  and  _279
REMARK  122  A    between atoms: _279  and  _280
REMARK  123  A    between atoms: _279  and  _282
REMARK  124  A    between atoms: _282  and  _283
REMARK  125  A    between atoms: _286  and  _287
REMARK  126  A    between atoms: _292  and  _294
REMARK  127  A    between atoms: _294  and  _295
REMARK  128  A    between atoms: _297  and  _299
REMARK  129  A    between atoms: _299  and  _300
REMARK  130  A    between atoms: _299  and  _302
REMARK  131  A    between atoms: _302  and  _303
REMARK  132  A    between atoms: _306  and  _308
REMARK  133  A    between atoms: _308  and  _309
REMARK  134  A    between atoms: _311  and  _313
REMARK  135  A    between atoms: _313  and  _314
REMARK  136  A    between atoms: _317  and  _319
REMARK  137  A    between atoms: _319  and  _320
REMARK  138  A    between atoms: _319  and  _322
REMARK  139  A    between atoms: _322  and  _323
REMARK  140  A    between atoms: _323  and  _324
REMARK  141  A    between atoms: _329  and  _331
REMARK  142  A    between atoms: _331  and  _332
REMARK  143  A    between atoms: _331  and  _334
REMARK  144  A    between atoms: _334  and  _335
REMARK  145  A    between atoms: _340  and  _342
REMARK  146  A    between atoms: _342  and  _343
REMARK  147  A    between atoms: _345  and  _347
REMARK  148  A    between atoms: _347  and  _348
REMARK  149  A    between atoms: _347  and  _350
REMARK  150  A    between atoms: _350  and  _351
REMARK  151  A    between atoms: _356  and  _358
REMARK  152  A    between atoms: _358  and  _359
REMARK  153  A    between atoms: _358  and  _361
REMARK  154  A    between atoms: _361  and  _362
REMARK  155  A    between atoms: _365  and  _367
REMARK  156  A    between atoms: _367  and  _368
REMARK  157  A    between atoms: _370  and  _372
REMARK  158  A    between atoms: _372  and  _373
REMARK  159  A    between atoms: _372  and  _375
REMARK  160  A    between atoms: _375  and  _376
REMARK  161  A    between atoms: _376  and  _377
REMARK  162  A    between atoms: _377  and  _378
REMARK  163  A    between atoms: _387  and  _389
REMARK  164  A    between atoms: _389  and  _390
REMARK  165  A    between atoms: _393  and  _395
REMARK  166  A    between atoms: _395  and  _396
REMARK  167  A    between atoms: _395  and  _398
REMARK  168  A    between atoms: _398  and  _399
REMARK  169  A    between atoms: _402  and  _404
REMARK  170  A    between atoms: _404  and  _405
REMARK  171  A    between atoms: _404  and  _407
REMARK  172  A    between atoms: _407  and  _408
REMARK  173  A    between atoms: _411  and  _413
REMARK  174  A    between atoms: _413  and  _414
REMARK  175  A    between atoms: _413  and  _416
REMARK  176  A    between atoms: _416  and  _417
REMARK  177  A    between atoms: _417  and  _418
REMARK  178  A    between atoms: _418  and  _419
REMARK  179  A    between atoms: _419  and  _420
REMARK  180  A    between atoms: _424  and  _426
REMARK  181  A    between atoms: _426  and  _427
REMARK  182  A    between atoms: _426  and  _429
REMARK  183  A    between atoms: _429  and  _430
REMARK  184  A    between atoms: _435  and  _437
REMARK  185  A    between atoms: _437  and  _438
REMARK  186  A    between atoms: _437  and  _440
REMARK  187  A    between atoms: _440  and  _441
REMARK  188  A    between atoms: _444  and  _446
REMARK  189  A    between atoms: _446  and  _447
REMARK  190  A    between atoms: _446  and  _449
REMARK  191  A    between atoms: _449  and  _450
REMARK  192  A    between atoms: _453  and  _455
REMARK  193  A    between atoms: _455  and  _456
REMARK  194  A    between atoms: _458  and  _460
REMARK  195  A    between atoms: _460  and  _461
REMARK  196  A    between atoms: _460  and  _463
REMARK  197  A    between atoms: _463  and  _464
REMARK  198  A    between atoms: _469  and  _471
REMARK  199  A    between atoms: _471  and  _472
REMARK  200  A    between atoms: _471  and  _474
REMARK  201  A    between atoms: _474  and  _475
REMARK  202  A    between atoms: _478  and  _480
REMARK  203  A    between atoms: _480  and  _481
REMARK  204  A    between atoms: _480  and  _483
REMARK  205  A    between atoms: _486  and  _488
REMARK  206  A    between atoms: _488  and  _489
REMARK  207  A    between atoms: _488  and  _491
REMARK  208  A    between atoms: _491  and  _492
REMARK  209  A    between atoms: _497  and  _499
REMARK  210  A    between atoms: _499  and  _500
REMARK  211  A    between atoms: _499  and  _502
REMARK  212  A    between atoms: _502  and  _503
REMARK  213  A    between atoms: _508  and  _509
REMARK  214  A    between atoms: _511  and  _513
REMARK  215  A    between atoms: _513  and  _514
REMARK  216  A    between atoms: _513  and  _516
REMARK  217  A    between atoms: _516  and  _517
REMARK  218  A    between atoms: _517  and  _518
REMARK                            x       y       z     vdW  Elec       q    Type
REMARK                         _______ _______ _______ _____ _____    ______ ____
ROOT
ATOM      1  CA  SER A   1       2.706 -21.893 -13.077  0.00  0.00    +0.163 C 
ENDROOT
BRANCH   1   2
ATOM      2  N   SER A   1       2.525 -23.183 -12.405  0.00  0.00    -0.237 NA
ATOM      3  H   SER A   1       2.176 -23.998 -12.949  0.00  0.00    +0.142 HD
ENDBRANCH   1   2
BRANCH   1   4
ATOM      4  CB  SER A   1       1.890 -20.753 -12.453  0.00  0.00    +0.227 C 
ATOM      5  OG  SER A   1       2.223 -19.581 -12.623  0.00  0.00    -0.287 OA
ENDBRANCH   1   4
BRANCH   1   6
ATOM      6  C   SER A   1       2.383 -21.995 -14.578  0.00  0.00    +0.162 C 
BRANCH   6   7
ATOM      7  O   SER A   1       1.067 -22.479 -14.772  0.00  0.00    -0.380 OA
ATOM      8  H   SER A   1       0.878 -22.538 -15.742  0.00  0.00    +0.211 HD
ENDBRANCH   6   7
ENDBRANCH   1   6
TORSDOF 4
REMARK  Name = ../refined-set-2016/2q8z/2q8z_pocket.pdb
REMARK  218 active torsions:
REMARK  status: ('A' for Active; 'I' for Inactive)
REMARK    1  A    between atoms: _1  and  _3
REMARK    2  A    between atoms: _3  and  _4
REMARK    3  A    between atoms: _3  and  _6
REMARK    4  A    between atoms: _8  and  _10
REMARK    5  A    between atoms: _10  and  _11
REMARK    6  A    between atoms: _10  and  _13
REMARK    7  A    between atoms: _13  and  _14
REMARK    8  A    between atoms: _17  and  _19
REMARK    9  A    between atoms: _19  and  _20
REMARK   10  A    between atoms: _22  and  _24
REMARK   11  A    between atoms: _24  and  _25
REMARK   12  A    between atoms: _24  and  _27
REMARK   13  A    between atoms: _27  and  _28
REMARK   14  A    between atoms: _31  and  _33
REMARK   15  A    between atoms: _33  and  _34
REMARK   16  A    between atoms: _33  and  _36
REMARK   17  A    between atoms: _36  and  _37
REMARK   18  A    between atoms: _40  and  _42
REMARK   19  A    between atoms: _42  and  _43
REMARK   20  A    between atoms: _42  and  _45
REMARK   21  A    between atoms: _45  and  _46
REMARK   22  A    between atoms: _46  and  _47
REMARK   23  A    between atoms: _47  and  _48
REMARK   24  A    between atoms: _48  and  _49
REMARK   25  A    between atoms: _53  and  _55
REMARK   26  A    between atoms: _55  and  _56
REMARK   27  A    between atoms: _55  and  _58
REMARK   28  A    between atoms: _58  and  _59
REMARK   29  A    between atoms: _59  and  _60
REMARK   30  A    between atoms: _62  and  _64
REMARK   31  A    between atoms: _64  and  _65
REMARK   32  A    between atoms: _64  and  _67
REMARK   33  A    between atoms: _67  and  _68
REMARK   34  A    between atoms: _73  and  _75
REMARK   35  A    between atoms: _75  and  _76
REMARK   36  A    between atoms: _75  and  _78
REMARK   37  A    between atoms: _78  and  _79
REMARK   38  A    between atoms: _85  and  _87
REMARK   39  A    between atoms: _87  and  _88
REMARK   40  A    between atoms: _91  and  _93
REMARK   41  A    between atoms: _93  and  _94
REMARK   42  A    between atoms: _93  and  _96
REMARK   43  A    between atoms: _96  and  _97
REMARK   44  A    between atoms: _103  and  _105
REMARK   45  A    between atoms: _105  and  _106
REMARK   46  A    between atoms: _105  and  _108
REMARK   47  A    between atoms: _108  and  _109
REMARK   48  A    between atoms: _112  and  _114
REMARK   49  A    between atoms: _114  and  _115
REMARK   50  A    between atoms: _114  and  _117
REMARK   51  A    between atoms: _117  and  _118
REMARK   52  A    between atoms: _118  and  _119
REMARK   53  A    between atoms: _121  and  _123
REMARK   54  A    between atoms: _123  and  _124
REMARK   55  A    between atoms: _123  and  _126
REMARK   56  A    between atoms: _126  and  _127
REMARK   57  A    between atoms: _127  and  _128
REMARK   58  A    between atoms: _128  and  _129
REMARK   59  A    between atoms: _129  and  _130
REMARK   60  A    between atoms: _134  and  _136
REMARK   61  A    between atoms: _136  and  _137
REMARK   62  A    between atoms: _136  and  _139
REMARK   63  A    between atoms: _139  and  _140
REMARK   64  A    between atoms: _143  and  _145
REMARK   65  A    between atoms: _145  and  _146
REMARK   66  A    between atoms: _145  and  _148
REMARK   67  A    between atoms: _148  and  _149
REMARK   68  A    between atoms: _152  and  _154
REMARK   69  A    between atoms: _154  and  _155
REMARK   70  A    between atoms: _154  and  _157
REMARK   71  A    between atoms: _160  and  _162
REMARK   72  A    between atoms: _162  and  _163
REMARK   73  A    between atoms: _162  and  _165
REMARK   74  A    between atoms: _165  and  _166
REMARK   75  A    between atoms: _166  and  _167
REMARK   76  A    between atoms: _167  and  _168
REMARK   77  A    between atoms: _168  and  _169
REMARK   78  A    between atoms: _173  and  _175
REMARK   79  A    between atoms: _175  and  _176
REMARK   80  A    between atoms: _175  and  _178
REMARK   81  A    between atoms: _178  and  _179
REMARK   82  A    between atoms: _182  and  _184
REMARK   83  A    between atoms: _184  and  _185
REMARK   84  A    between atoms: _184  and  _187
REMARK   85  A    between atoms: _187  and  _188
REMARK   86  A    between atoms: _191  and  _193
REMARK   87  A    between atoms: _193  and  _194
REMARK   88  A    between atoms: _193  and  _196
REMARK   89  A    between atoms: _196  and  _197
REMARK   90  A    between atoms: _202  and  _204
REMARK   91  A    between atoms: _204  and  _205
REMARK   92  A    between atoms: _204  and  _207
REMARK   93  A    between atoms: _207  and  _208
REMARK   94  A    between atoms: _210  and  _212
REMARK   95  A    between atoms: _212  and  _213
REMARK   96  A    between atoms: _212  and  _215
REMARK   97  A    between atoms: _215  and  _216
REMARK   98  A    between atoms: _216  and  _217
REMARK   99  A    between atoms: _222  and  _224
REMARK  100  A    between atoms: _224  and  _225
REMARK  101  A    between atoms: _224  and  _227
REMARK  102  A    between atoms: _230  and  _232
REMARK  103  A    between atoms: _232  and  _233
REMARK  104  A    between atoms: _232  and  _235
REMARK  105  A    between atoms: _238  and  _240
REMARK  106  A    between atoms: _240  and  _241
REMARK  107  A    between atoms: _243  and  _245
REMARK  108  A    between atoms: _245  and  _246
REMARK  109  A    between atoms: _249  and  _251
REMARK  110  A    between atoms: _251  and  _252
REMARK  111  A    between atoms: _251  and  _254
REMARK  112  A    between atoms: _254  and  _255
REMARK  113  A    between atoms: _260  and  _262
REMARK  114  A    between atoms: _262  and  _263
REMARK  115  A    between atoms: _262  and  _265
REMARK  116  A    between atoms: _265  and  _266
REMARK  117  A    between atoms: _268  and  _270
REMARK  118  A    between atoms: _270  and  _271
REMARK  119  A    between atoms: _270  and  _273
REMARK  120  A    between atoms: _273  and  _274
REMARK  121  A    between atoms: _277  and  _279
REMARK  122  A    between atoms: _279  and  _280
REMARK  123  A    between atoms: _279  and  _282
REMARK  124  A    between atoms: _282  and  _283
REMARK  125  A    between atoms: _286  and  _287
REMARK  126  A    between atoms: _292  and  _294
REMARK  127  A    between atoms: _294  and  _295
REMARK  128  A    between atoms: _297  and  _299
REMARK  129  A    between atoms: _299  and  _300
REMARK  130  A    between atoms: _299  and  _302
REMARK  131  A    between atoms: _302  and  _303
REMARK  132  A    between atoms: _306  and  _308
REMARK  133  A    between atoms: _308  and  _309
REMARK  134  A    between atoms: _311  and  _313
REMARK  135  A    between atoms: _313  and  _314
REMARK  136  A    between atoms: _317  and  _319
REMARK  137  A    between atoms: _319  and  _320
REMARK  138  A    between atoms: _319  and  _322
REMARK  139  A    between atoms: _322  and  _323
REMARK  140  A    between atoms: _323  and  _324
REMARK  141  A    between atoms: _329  and  _331
REMARK  142  A    between atoms: _331  and  _332
REMARK  143  A    between atoms: _331  and  _334
REMARK  144  A    between atoms: _334  and  _335
REMARK  145  A    between atoms: _340  and  _342
REMARK  146  A    between atoms: _342  and  _343
REMARK  147  A    between atoms: _345  and  _347
REMARK  148  A    between atoms: _347  and  _348
REMARK  149  A    between atoms: _347  and  _350
REMARK  150  A    between atoms: _350  and  _351
REMARK  151  A    between atoms: _356  and  _358
REMARK  152  A    between atoms: _358  and  _359
REMARK  153  A    between atoms: _358  and  _361
REMARK  154  A    between atoms: _361  and  _362
REMARK  155  A    between atoms: _365  and  _367
REMARK  156  A    between atoms: _367  and  _368
REMARK  157  A    between atoms: _370  and  _372
REMARK  158  A    between atoms: _372  and  _373
REMARK  159  A    between atoms: _372  and  _375
REMARK  160  A    between atoms: _375  and  _376
REMARK  161  A    between atoms: _376  and  _377
REMARK  162  A    between atoms: _377  and  _378
REMARK  163  A    between atoms: _387  and  _389
REMARK  164  A    between atoms: _389  and  _390
REMARK  165  A    between atoms: _393  and  _395
REMARK  166  A    between atoms: _395  and  _396
REMARK  167  A    between atoms: _395  and  _398
REMARK  168  A    between atoms: _398  and  _399
REMARK  169  A    between atoms: _402  and  _404
REMARK  170  A    between atoms: _404  and  _405
REMARK  171  A    between atoms: _404  and  _407
REMARK  172  A    between atoms: _407  and  _408
REMARK  173  A    between atoms: _411  and  _413
REMARK  174  A    between atoms: _413  and  _414
REMARK  175  A    between atoms: _413  and  _416
REMARK  176  A    between atoms: _416  and  _417
REMARK  177  A    between atoms: _417  and  _418
REMARK  178  A    between atoms: _418  and  _419
REMARK  179  A    between atoms: _419  and  _420
REMARK  180  A    between atoms: _424  and  _426
REMARK  181  A    between atoms: _426  and  _427
REMARK  182  A    between atoms: _426  and  _429
REMARK  183  A    between atoms: _429  and  _430
REMARK  184  A    between atoms: _435  and  _437
REMARK  185  A    between atoms: _437  and  _438
REMARK  186  A    between atoms: _437  and  _440
REMARK  187  A    between atoms: _440  and  _441
REMARK  188  A    between atoms: _444  and  _446
REMARK  189  A    between atoms: _446  and  _447
REMARK  190  A    between atoms: _446  and  _449
REMARK  191  A    between atoms: _449  and  _450
REMARK  192  A    between atoms: _453  and  _455
REMARK  193  A    between atoms: _455  and  _456
REMARK  194  A    between atoms: _458  and  _460
REMARK  195  A    between atoms: _460  and  _461
REMARK  196  A    between atoms: _460  and  _463
REMARK  197  A    between atoms: _463  and  _464
REMARK  198  A    between atoms: _469  and  _471
REMARK  199  A    between atoms: _471  and  _472
REMARK  200  A    between atoms: _471  and  _474
REMARK  201  A    between atoms: _474  and  _475
REMARK  202  A    between atoms: _478  and  _480
REMARK  203  A    between atoms: _480  and  _481
REMARK  204  A    between atoms: _480  and  _483
REMARK  205  A    between atoms: _486  and  _488
REMARK  206  A    between atoms: _488  and  _489
REMARK  207  A    between atoms: _488  and  _491
REMARK  208  A    between atoms: _491  and  _492
REMARK  209  A    between atoms: _497  and  _499
REMARK  210  A    between atoms: _499  and  _500
REMARK  211  A    between atoms: _499  and  _502
REMARK  212  A    between atoms: _502  and  _503
REMARK  213  A    between atoms: _508  and  _509
REMARK  214  A    between atoms: _511  and  _513
REMARK  215  A    between atoms: _513  and  _514
REMARK  216  A    between atoms: _513  and  _516
REMARK  217  A    between atoms: _516  and  _517
REMARK  218  A    between atoms: _517  and  _518
REMARK                            x       y       z     vdW  Elec       q    Type
REMARK                         _______ _______ _______ _____ _____    ______ ____
ROOT
ATOM      1  CB  GLN A   1       1.910 -16.726 -14.092  0.00  0.00    +0.035 C 
ENDROOT
BRANCH   1   2
ATOM      2  CA  GLN A   1       1.886 -15.679 -12.975  0.00  0.00    +0.134 C 
BRANCH   2   3
ATOM      3  N   GLN A   1       2.632 -16.205 -11.825  0.00  0.00    -0.239 NA
ATOM      4  H   GLN A   1       3.010 -17.173 -11.874  0.00  0.00    +0.142 HD
ENDBRANCH   2   3
BRANCH   2   5
ATOM      5  C   GLN A   1       0.448 -15.269 -12.670  0.00  0.00    +0.224 C 
ATOM      6  O   GLN A   1      -0.084 -14.343 -13.291  0.00  0.00    -0.287 OA
ENDBRANCH   2   5
ENDBRANCH   1   2
BRANCH   1   7
ATOM      7  CG  GLN A   1       3.345 -16.889 -14.622  0.00  0.00    +0.087 C 
BRANCH   7   8
ATOM      8  CD  GLN A   1       3.532 -18.118 -15.479  0.00  0.00    +0.219 C 
ATOM      9  NE2 GLN A   1       4.790 -18.500 -15.667  0.00  0.00    -0.329 N 
ATOM     10 HE21 GLN A   1       5.567 -17.962 -15.234  0.00  0.00    +0.145 HD
ATOM     11 HE22 GLN A   1       4.998 -19.338 -16.247  0.00  0.00    +0.145 HD
ATOM     12  OE1 GLN A   1       2.567 -18.715 -15.966  0.00  0.00    -0.275 OA
ENDBRANCH   7   8
ENDBRANCH   1   7
TORSDOF 5
REMARK  Name = ../refined-set-2016/2q8z/2q8z_pocket.pdb
REMARK  218 active torsions:
REMARK  status: ('A' for Active; 'I' for Inactive)
REMARK    1  A    between atoms: _1  and  _3
REMARK    2  A    between atoms: _3  and  _4
REMARK    3  A    between atoms: _3  and  _6
REMARK    4  A    between atoms: _8  and  _10
REMARK    5  A    between atoms: _10  and  _11
REMARK    6  A    between atoms: _10  and  _13
REMARK    7  A    between atoms: _13  and  _14
REMARK    8  A    between atoms: _17  and  _19
REMARK    9  A    between atoms: _19  and  _20
REMARK   10  A    between atoms: _22  and  _24
REMARK   11  A    between atoms: _24  and  _25
REMARK   12  A    between atoms: _24  and  _27
REMARK   13  A    between atoms: _27  and  _28
REMARK   14  A    between atoms: _31  and  _33
REMARK   15  A    between atoms: _33  and  _34
REMARK   16  A    between atoms: _33  and  _36
REMARK   17  A    between atoms: _36  and  _37
REMARK   18  A    between atoms: _40  and  _42
REMARK   19  A    between atoms: _42  and  _43
REMARK   20  A    between atoms: _42  and  _45
REMARK   21  A    between atoms: _45  and  _46
REMARK   22  A    between atoms: _46  and  _47
REMARK   23  A    between atoms: _47  and  _48
REMARK   24  A    between atoms: _48  and  _49
REMARK   25  A    between atoms: _53  and  _55
REMARK   26  A    between atoms: _55  and  _56
REMARK   27  A    between atoms: _55  and  _58
REMARK   28  A    between atoms: _58  and  _59
REMARK   29  A    between atoms: _59  and  _60
REMARK   30  A    between atoms: _62  and  _64
REMARK   31  A    between atoms: _64  and  _65
REMARK   32  A    between atoms: _64  and  _67
REMARK   33  A    between atoms: _67  and  _68
REMARK   34  A    between atoms: _73  and  _75
REMARK   35  A    between atoms: _75  and  _76
REMARK   36  A    between atoms: _75  and  _78
REMARK   37  A    between atoms: _78  and  _79
REMARK   38  A    between atoms: _85  and  _87
REMARK   39  A    between atoms: _87  and  _88
REMARK   40  A    between atoms: _91  and  _93
REMARK   41  A    between atoms: _93  and  _94
REMARK   42  A    between atoms: _93  and  _96
REMARK   43  A    between atoms: _96  and  _97
REMARK   44  A    between atoms: _103  and  _105
REMARK   45  A    between atoms: _105  and  _106
REMARK   46  A    between atoms: _105  and  _108
REMARK   47  A    between atoms: _108  and  _109
REMARK   48  A    between atoms: _112  and  _114
REMARK   49  A    between atoms: _114  and  _115
REMARK   50  A    between atoms: _114  and  _117
REMARK   51  A    between atoms: _117  and  _118
REMARK   52  A    between atoms: _118  and  _119
REMARK   53  A    between atoms: _121  and  _123
REMARK   54  A    between atoms: _123  and  _124
REMARK   55  A    between atoms: _123  and  _126
REMARK   56  A    between atoms: _126  and  _127
REMARK   57  A    between atoms: _127  and  _128
REMARK   58  A    between atoms: _128  and  _129
REMARK   59  A    between atoms: _129  and  _130
REMARK   60  A    between atoms: _134  and  _136
REMARK   61  A    between atoms: _136  and  _137
REMARK   62  A    between atoms: _136  and  _139
REMARK   63  A    between atoms: _139  and  _140
REMARK   64  A    between atoms: _143  and  _145
REMARK   65  A    between atoms: _145  and  _146
REMARK   66  A    between atoms: _145  and  _148
REMARK   67  A    between atoms: _148  and  _149
REMARK   68  A    between atoms: _152  and  _154
REMARK   69  A    between atoms: _154  and  _155
REMARK   70  A    between atoms: _154  and  _157
REMARK   71  A    between atoms: _160  and  _162
REMARK   72  A    between atoms: _162  and  _163
REMARK   73  A    between atoms: _162  and  _165
REMARK   74  A    between atoms: _165  and  _166
REMARK   75  A    between atoms: _166  and  _167
REMARK   76  A    between atoms: _167  and  _168
REMARK   77  A    between atoms: _168  and  _169
REMARK   78  A    between atoms: _173  and  _175
REMARK   79  A    between atoms: _175  and  _176
REMARK   80  A    between atoms: _175  and  _178
REMARK   81  A    between atoms: _178  and  _179
REMARK   82  A    between atoms: _182  and  _184
REMARK   83  A    between atoms: _184  and  _185
REMARK   84  A    between atoms: _184  and  _187
REMARK   85  A    between atoms: _187  and  _188
REMARK   86  A    between atoms: _191  and  _193
REMARK   87  A    between atoms: _193  and  _194
REMARK   88  A    between atoms: _193  and  _196
REMARK   89  A    between atoms: _196  and  _197
REMARK   90  A    between atoms: _202  and  _204
REMARK   91  A    between atoms: _204  and  _205
REMARK   92  A    between atoms: _204  and  _207
REMARK   93  A    between atoms: _207  and  _208
REMARK   94  A    between atoms: _210  and  _212
REMARK   95  A    between atoms: _212  and  _213
REMARK   96  A    between atoms: _212  and  _215
REMARK   97  A    between atoms: _215  and  _216
REMARK   98  A    between atoms: _216  and  _217
REMARK   99  A    between atoms: _222  and  _224
REMARK  100  A    between atoms: _224  and  _225
REMARK  101  A    between atoms: _224  and  _227
REMARK  102  A    between atoms: _230  and  _232
REMARK  103  A    between atoms: _232  and  _233
REMARK  104  A    between atoms: _232  and  _235
REMARK  105  A    between atoms: _238  and  _240
REMARK  106  A    between atoms: _240  and  _241
REMARK  107  A    between atoms: _243  and  _245
REMARK  108  A    between atoms: _245  and  _246
REMARK  109  A    between atoms: _249  and  _251
REMARK  110  A    between atoms: _251  and  _252
REMARK  111  A    between atoms: _251  and  _254
REMARK  112  A    between atoms: _254  and  _255
REMARK  113  A    between atoms: _260  and  _262
REMARK  114  A    between atoms: _262  and  _263
REMARK  115  A    between atoms: _262  and  _265
REMARK  116  A    between atoms: _265  and  _266
REMARK  117  A    between atoms: _268  and  _270
REMARK  118  A    between atoms: _270  and  _271
REMARK  119  A    between atoms: _270  and  _273
REMARK  120  A    between atoms: _273  and  _274
REMARK  121  A    between atoms: _277  and  _279
REMARK  122  A    between atoms: _279  and  _280
REMARK  123  A    between atoms: _279  and  _282
REMARK  124  A    between atoms: _282  and  _283
REMARK  125  A    between atoms: _286  and  _287
REMARK  126  A    between atoms: _292  and  _294
REMARK  127  A    between atoms: _294  and  _295
REMARK  128  A    between atoms: _297  and  _299
REMARK  129  A    between atoms: _299  and  _300
REMARK  130  A    between atoms: _299  and  _302
REMARK  131  A    between atoms: _302  and  _303
REMARK  132  A    between atoms: _306  and  _308
REMARK  133  A    between atoms: _308  and  _309
REMARK  134  A    between atoms: _311  and  _313
REMARK  135  A    between atoms: _313  and  _314
REMARK  136  A    between atoms: _317  and  _319
REMARK  137  A    between atoms: _319  and  _320
REMARK  138  A    between atoms: _319  and  _322
REMARK  139  A    between atoms: _322  and  _323
REMARK  140  A    between atoms: _323  and  _324
REMARK  141  A    between atoms: _329  and  _331
REMARK  142  A    between atoms: _331  and  _332
REMARK  143  A    between atoms: _331  and  _334
REMARK  144  A    between atoms: _334  and  _335
REMARK  145  A    between atoms: _340  and  _342
REMARK  146  A    between atoms: _342  and  _343
REMARK  147  A    between atoms: _345  and  _347
REMARK  148  A    between atoms: _347  and  _348
REMARK  149  A    between atoms: _347  and  _350
REMARK  150  A    between atoms: _350  and  _351
REMARK  151  A    between atoms: _356  and  _358
REMARK  152  A    between atoms: _358  and  _359
REMARK  153  A    between atoms: _358  and  _361
REMARK  154  A    between atoms: _361  and  _362
REMARK  155  A    between atoms: _365  and  _367
REMARK  156  A    between atoms: _367  and  _368
REMARK  157  A    between atoms: _370  and  _372
REMARK  158  A    between atoms: _372  and  _373
REMARK  159  A    between atoms: _372  and  _375
REMARK  160  A    between atoms: _375  and  _376
REMARK  161  A    between atoms: _376  and  _377
REMARK  162  A    between atoms: _377  and  _378
REMARK  163  A    between atoms: _387  and  _389
REMARK  164  A    between atoms: _389  and  _390
REMARK  165  A    between atoms: _393  and  _395
REMARK  166  A    between atoms: _395  and  _396
REMARK  167  A    between atoms: _395  and  _398
REMARK  168  A    between atoms: _398  and  _399
REMARK  169  A    between atoms: _402  and  _404
REMARK  170  A    between atoms: _404  and  _405
REMARK  171  A    between atoms: _404  and  _407
REMARK  172  A    between atoms: _407  and  _408
REMARK  173  A    between atoms: _411  and  _413
REMARK  174  A    between atoms: _413  and  _414
REMARK  175  A    between atoms: _413  and  _416
REMARK  176  A    between atoms: _416  and  _417
REMARK  177  A    between atoms: _417  and  _418
REMARK  178  A    between atoms: _418  and  _419
REMARK  179  A    between atoms: _419  and  _420
REMARK  180  A    between atoms: _424  and  _426
REMARK  181  A    between atoms: _426  and  _427
REMARK  182  A    between atoms: _426  and  _429
REMARK  183  A    between atoms: _429  and  _430
REMARK  184  A    between atoms: _435  and  _437
REMARK  185  A    between atoms: _437  and  _438
REMARK  186  A    between atoms: _437  and  _440
REMARK  187  A    between atoms: _440  and  _441
REMARK  188  A    between atoms: _444  and  _446
REMARK  189  A    between atoms: _446  and  _447
REMARK  190  A    between atoms: _446  and  _449
REMARK  191  A    between atoms: _449  and  _450
REMARK  192  A    between atoms: _453  and  _455
REMARK  193  A    between atoms: _455  and  _456
REMARK  194  A    between atoms: _458  and  _460
REMARK  195  A    between atoms: _460  and  _461
REMARK  196  A    between atoms: _460  and  _463
REMARK  197  A    between atoms: _463  and  _464
REMARK  198  A    between atoms: _469  and  _471
REMARK  199  A    between atoms: _471  and  _472
REMARK  200  A    between atoms: _471  and  _474
REMARK  201  A    between atoms: _474  and  _475
REMARK  202  A    between atoms: _478  and  _480
REMARK  203  A    between atoms: _480  and  _481
REMARK  204  A    between atoms: _480  and  _483
REMARK  205  A    between atoms: _486  and  _488
REMARK  206  A    between atoms: _488  and  _489
REMARK  207  A    between atoms: _488  and  _491
REMARK  208  A    between atoms: _491  and  _492
REMARK  209  A    between atoms: _497  and  _499
REMARK  210  A    between atoms: _499  and  _500
REMARK  211  A    between atoms: _499  and  _502
REMARK  212  A    between atoms: _502  and  _503
REMARK  213  A    between atoms: _508  and  _509
REMARK  214  A    between atoms: _511  and  _513
REMARK  215  A    between atoms: _513  and  _514
REMARK  216  A    between atoms: _513  and  _516
REMARK  217  A    between atoms: _516  and  _517
REMARK  218  A    between atoms: _517  and  _518
REMARK                            x       y       z     vdW  Elec       q    Type
REMARK                         _______ _______ _______ _____ _____    ______ ____
ROOT
ATOM      1  C   GLY A   3      -1.067 -23.386 -23.008  0.00  0.00    +0.243 C 
ATOM      2  O   GLY A   3      -2.130 -22.772 -22.835  0.00  0.00    -0.273 OA
ATOM      3  N   ALA A   4      -0.975 -24.548 -23.652  0.00  0.00    -0.297 N 
ATOM      4  H   ALA A   4      -0.066 -25.053 -23.679  0.00  0.00    +0.150 HD
ENDROOT
BRANCH   3   5
ATOM      5  CA  ALA A   4      -2.142 -25.117 -24.321  0.00  0.00    +0.149 C 
ATOM      6  CB  ALA A   4      -1.736 -26.208 -25.311  0.00  0.00    +0.031 C 
BRANCH   5   7
ATOM      7  C   ALA A   4      -3.173 -25.602 -23.297  0.00  0.00    +0.241 C 
ATOM      8  N   ASN A   5      -2.728 -25.803 -22.063  0.00  0.00    -0.297 N 
ATOM      9  H   ASN A   5      -1.713 -25.664 -21.883  0.00  0.00    +0.150 HD
ATOM     10  O   ALA A   4      -4.360 -25.698 -23.618  0.00  0.00    -0.273 OA
BRANCH   8  11
ATOM     11  CA  ASN A   5      -3.575 -26.208 -20.938  0.00  0.00    +0.158 C 
BRANCH  11  12
ATOM     12  C   ASN A   5      -4.216 -25.044 -20.160  0.00  0.00    +0.241 C 
ATOM     13  O   ASN A   5      -4.901 -25.264 -19.154  0.00  0.00    -0.273 OA
ATOM     14  N   SER A   6      -3.977 -23.812 -20.596  0.00  0.00    -0.296 N 
ATOM     15  H   SER A   6      -3.500 -23.680 -21.511  0.00  0.00    +0.150 HD
BRANCH  14  16
ATOM     16  CA  SER A   6      -4.369 -22.642 -19.820  0.00  0.00    +0.166 C 
BRANCH  16  17
ATOM     17  CB  SER A   6      -5.517 -21.962 -20.532  0.00  0.00    +0.229 C 
ATOM     18  OG  SER A   6      -5.392 -20.845 -21.037  0.00  0.00    -0.286 OA
ENDBRANCH  16  17
BRANCH  16  19
ATOM     19  C   SER A   6      -3.177 -21.715 -19.642  0.00  0.00    +0.165 C 
BRANCH  19  20
ATOM     20  O   SER A   6      -2.125 -22.440 -19.019  0.00  0.00    -0.380 OA
ATOM     21  H   SER A   6      -1.872 -23.208 -19.590  0.00  0.00    +0.211 HD
ENDBRANCH  19  20
ENDBRANCH  16  19
ENDBRANCH  14  16
ENDBRANCH  11  12
BRANCH  11  22
ATOM     22  CB  ASN A   5      -2.727 -27.049 -19.968  0.00  0.00    +0.114 C 
BRANCH  22  23
ATOM     23  CG  ASN A   5      -1.552 -26.267 -19.329  0.00  0.00    +0.222 C 
ATOM     24  ND2 ASN A   5      -1.063 -26.792 -18.207  0.00  0.00    -0.329 N 
ATOM     25 HD21 ASN A   5      -0.263 -26.335 -17.725  0.00  0.00    +0.145 HD
ATOM     26 HD22 ASN A   5      -1.481 -27.659 -17.813  0.00  0.00    +0.145 HD
ATOM     27  OD1 ASN A   5      -1.082 -25.238 -19.828  0.00  0.00    -0.275 OA
ENDBRANCH  22  23
ENDBRANCH  11  22
ENDBRANCH   8  11
ENDBRANCH   5   7
ENDBRANCH   3   5
BRANCH   1  28
ATOM     28  CA  GLY A   3       0.238 -22.854 -22.469  0.00  0.00    +0.176 C 
BRANCH  28  30
ATOM     29  C   VAL A   2       0.257 -20.697 -23.559  0.00  0.00    +0.241 C 
ATOM     30  N   GLY A   3       0.350 -21.410 -22.439  0.00  0.00    -0.295 N 
ATOM     31  H   GLY A   3       0.505 -20.925 -21.532  0.00  0.00    +0.150 HD
ATOM     32  O   VAL A   2       0.031 -21.214 -24.651  0.00  0.00    -0.273 OA
BRANCH  29  33
ATOM     33  CA  VAL A   2       0.508 -19.201 -23.451  0.00  0.00    +0.148 C 
BRANCH  33  36
ATOM     34  C   VAL A   1       2.683 -18.118 -23.856  0.00  0.00    +0.238 C 
ATOM     35  O   VAL A   1       2.721 -17.636 -22.724  0.00  0.00    -0.274 OA
ATOM     36  N   VAL A   2       1.655 -18.840 -24.308  0.00  0.00    -0.297 N 
ATOM     37  H   VAL A   2       1.662 -19.159 -25.298  0.00  0.00    +0.150 HD
BRANCH  34  38
ATOM     38  CA  VAL A   1       3.835 -17.868 -24.814  0.00  0.00    +0.145 C 
BRANCH  38  39
ATOM     39  CB  VAL A   1       5.144 -18.474 -24.227  0.00  0.00    +0.025 C 
ATOM     40  CG2 VAL A   1       4.964 -19.970 -23.977  0.00  0.00    +0.002 C 
ATOM     41  CG1 VAL A   1       6.298 -18.218 -25.197  0.00  0.00    +0.002 C 
ENDBRANCH  38  39
BRANCH  38  42
ATOM     42  N   VAL A   1       3.956 -16.417 -25.042  0.00  0.00    -0.238 NA
ATOM     43  H   VAL A   1       4.590 -15.844 -24.450  0.00  0.00    +0.142 HD
ENDBRANCH  38  42
ENDBRANCH  34  38
ENDBRANCH  33  36
BRANCH  33  44
ATOM     44  CB  VAL A   2      -0.790 -18.431 -23.844  0.00  0.00    +0.027 C 
ATOM     45  CG2 VAL A   2      -1.959 -18.844 -22.923  0.00  0.00    +0.002 C 
ATOM     46  CG1 VAL A   2      -0.566 -16.915 -23.818  0.00  0.00    +0.002 C 
ENDBRANCH  33  44
ENDBRANCH  29  33
ENDBRANCH  28  30
ENDBRANCH   1  28
TORSDOF 18
REMARK  Name = ../refined-set-2016/2q8z/2q8z_pocket.pdb
REMARK  218 active torsions:
REMARK  status: ('A' for Active; 'I' for Inactive)
REMARK    1  A    between atoms: _1  and  _3
REMARK    2  A    between atoms: _3  and  _4
REMARK    3  A    between atoms: _3  and  _6
REMARK    4  A    between atoms: _8  and  _10
REMARK    5  A    between atoms: _10  and  _11
REMARK    6  A    between atoms: _10  and  _13
REMARK    7  A    between atoms: _13  and  _14
REMARK    8  A    between atoms: _17  and  _19
REMARK    9  A    between atoms: _19  and  _20
REMARK   10  A    between atoms: _22  and  _24
REMARK   11  A    between atoms: _24  and  _25
REMARK   12  A    between atoms: _24  and  _27
REMARK   13  A    between atoms: _27  and  _28
REMARK   14  A    between atoms: _31  and  _33
REMARK   15  A    between atoms: _33  and  _34
REMARK   16  A    between atoms: _33  and  _36
REMARK   17  A    between atoms: _36  and  _37
REMARK   18  A    between atoms: _40  and  _42
REMARK   19  A    between atoms: _42  and  _43
REMARK   20  A    between atoms: _42  and  _45
REMARK   21  A    between atoms: _45  and  _46
REMARK   22  A    between atoms: _46  and  _47
REMARK   23  A    between atoms: _47  and  _48
REMARK   24  A    between atoms: _48  and  _49
REMARK   25  A    between atoms: _53  and  _55
REMARK   26  A    between atoms: _55  and  _56
REMARK   27  A    between atoms: _55  and  _58
REMARK   28  A    between atoms: _58  and  _59
REMARK   29  A    between atoms: _59  and  _60
REMARK   30  A    between atoms: _62  and  _64
REMARK   31  A    between atoms: _64  and  _65
REMARK   32  A    between atoms: _64  and  _67
REMARK   33  A    between atoms: _67  and  _68
REMARK   34  A    between atoms: _73  and  _75
REMARK   35  A    between atoms: _75  and  _76
REMARK   36  A    between atoms: _75  and  _78
REMARK   37  A    between atoms: _78  and  _79
REMARK   38  A    between atoms: _85  and  _87
REMARK   39  A    between atoms: _87  and  _88
REMARK   40  A    between atoms: _91  and  _93
REMARK   41  A    between atoms: _93  and  _94
REMARK   42  A    between atoms: _93  and  _96
REMARK   43  A    between atoms: _96  and  _97
REMARK   44  A    between atoms: _103  and  _105
REMARK   45  A    between atoms: _105  and  _106
REMARK   46  A    between atoms: _105  and  _108
REMARK   47  A    between atoms: _108  and  _109
REMARK   48  A    between atoms: _112  and  _114
REMARK   49  A    between atoms: _114  and  _115
REMARK   50  A    between atoms: _114  and  _117
REMARK   51  A    between atoms: _117  and  _118
REMARK   52  A    between atoms: _118  and  _119
REMARK   53  A    between atoms: _121  and  _123
REMARK   54  A    between atoms: _123  and  _124
REMARK   55  A    between atoms: _123  and  _126
REMARK   56  A    between atoms: _126  and  _127
REMARK   57  A    between atoms: _127  and  _128
REMARK   58  A    between atoms: _128  and  _129
REMARK   59  A    between atoms: _129  and  _130
REMARK   60  A    between atoms: _134  and  _136
REMARK   61  A    between atoms: _136  and  _137
REMARK   62  A    between atoms: _136  and  _139
REMARK   63  A    between atoms: _139  and  _140
REMARK   64  A    between atoms: _143  and  _145
REMARK   65  A    between atoms: _145  and  _146
REMARK   66  A    between atoms: _145  and  _148
REMARK   67  A    between atoms: _148  and  _149
REMARK   68  A    between atoms: _152  and  _154
REMARK   69  A    between atoms: _154  and  _155
REMARK   70  A    between atoms: _154  and  _157
REMARK   71  A    between atoms: _160  and  _162
REMARK   72  A    between atoms: _162  and  _163
REMARK   73  A    between atoms: _162  and  _165
REMARK   74  A    between atoms: _165  and  _166
REMARK   75  A    between atoms: _166  and  _167
REMARK   76  A    between atoms: _167  and  _168
REMARK   77  A    between atoms: _168  and  _169
REMARK   78  A    between atoms: _173  and  _175
REMARK   79  A    between atoms: _175  and  _176
REMARK   80  A    between atoms: _175  and  _178
REMARK   81  A    between atoms: _178  and  _179
REMARK   82  A    between atoms: _182  and  _184
REMARK   83  A    between atoms: _184  and  _185
REMARK   84  A    between atoms: _184  and  _187
REMARK   85  A    between atoms: _187  and  _188
REMARK   86  A    between atoms: _191  and  _193
REMARK   87  A    between atoms: _193  and  _194
REMARK   88  A    between atoms: _193  and  _196
REMARK   89  A    between atoms: _196  and  _197
REMARK   90  A    between atoms: _202  and  _204
REMARK   91  A    between atoms: _204  and  _205
REMARK   92  A    between atoms: _204  and  _207
REMARK   93  A    between atoms: _207  and  _208
REMARK   94  A    between atoms: _210  and  _212
REMARK   95  A    between atoms: _212  and  _213
REMARK   96  A    between atoms: _212  and  _215
REMARK   97  A    between atoms: _215  and  _216
REMARK   98  A    between atoms: _216  and  _217
REMARK   99  A    between atoms: _222  and  _224
REMARK  100  A    between atoms: _224  and  _225
REMARK  101  A    between atoms: _224  and  _227
REMARK  102  A    between atoms: _230  and  _232
REMARK  103  A    between atoms: _232  and  _233
REMARK  104  A    between atoms: _232  and  _235
REMARK  105  A    between atoms: _238  and  _240
REMARK  106  A    between atoms: _240  and  _241
REMARK  107  A    between atoms: _243  and  _245
REMARK  108  A    between atoms: _245  and  _246
REMARK  109  A    between atoms: _249  and  _251
REMARK  110  A    between atoms: _251  and  _252
REMARK  111  A    between atoms: _251  and  _254
REMARK  112  A    between atoms: _254  and  _255
REMARK  113  A    between atoms: _260  and  _262
REMARK  114  A    between atoms: _262  and  _263
REMARK  115  A    between atoms: _262  and  _265
REMARK  116  A    between atoms: _265  and  _266
REMARK  117  A    between atoms: _268  and  _270
REMARK  118  A    between atoms: _270  and  _271
REMARK  119  A    between atoms: _270  and  _273
REMARK  120  A    between atoms: _273  and  _274
REMARK  121  A    between atoms: _277  and  _279
REMARK  122  A    between atoms: _279  and  _280
REMARK  123  A    between atoms: _279  and  _282
REMARK  124  A    between atoms: _282  and  _283
REMARK  125  A    between atoms: _286  and  _287
REMARK  126  A    between atoms: _292  and  _294
REMARK  127  A    between atoms: _294  and  _295
REMARK  128  A    between atoms: _297  and  _299
REMARK  129  A    between atoms: _299  and  _300
REMARK  130  A    between atoms: _299  and  _302
REMARK  131  A    between atoms: _302  and  _303
REMARK  132  A    between atoms: _306  and  _308
REMARK  133  A    between atoms: _308  and  _309
REMARK  134  A    between atoms: _311  and  _313
REMARK  135  A    between atoms: _313  and  _314
REMARK  136  A    between atoms: _317  and  _319
REMARK  137  A    between atoms: _319  and  _320
REMARK  138  A    between atoms: _319  and  _322
REMARK  139  A    between atoms: _322  and  _323
REMARK  140  A    between atoms: _323  and  _324
REMARK  141  A    between atoms: _329  and  _331
REMARK  142  A    between atoms: _331  and  _332
REMARK  143  A    between atoms: _331  and  _334
REMARK  144  A    between atoms: _334  and  _335
REMARK  145  A    between atoms: _340  and  _342
REMARK  146  A    between atoms: _342  and  _343
REMARK  147  A    between atoms: _345  and  _347
REMARK  148  A    between atoms: _347  and  _348
REMARK  149  A    between atoms: _347  and  _350
REMARK  150  A    between atoms: _350  and  _351
REMARK  151  A    between atoms: _356  and  _358
REMARK  152  A    between atoms: _358  and  _359
REMARK  153  A    between atoms: _358  and  _361
REMARK  154  A    between atoms: _361  and  _362
REMARK  155  A    between atoms: _365  and  _367
REMARK  156  A    between atoms: _367  and  _368
REMARK  157  A    between atoms: _370  and  _372
REMARK  158  A    between atoms: _372  and  _373
REMARK  159  A    between atoms: _372  and  _375
REMARK  160  A    between atoms: _375  and  _376
REMARK  161  A    between atoms: _376  and  _377
REMARK  162  A    between atoms: _377  and  _378
REMARK  163  A    between atoms: _387  and  _389
REMARK  164  A    between atoms: _389  and  _390
REMARK  165  A    between atoms: _393  and  _395
REMARK  166  A    between atoms: _395  and  _396
REMARK  167  A    between atoms: _395  and  _398
REMARK  168  A    between atoms: _398  and  _399
REMARK  169  A    between atoms: _402  and  _404
REMARK  170  A    between atoms: _404  and  _405
REMARK  171  A    between atoms: _404  and  _407
REMARK  172  A    between atoms: _407  and  _408
REMARK  173  A    between atoms: _411  and  _413
REMARK  174  A    between atoms: _413  and  _414
REMARK  175  A    between atoms: _413  and  _416
REMARK  176  A    between atoms: _416  and  _417
REMARK  177  A    between atoms: _417  and  _418
REMARK  178  A    between atoms: _418  and  _419
REMARK  179  A    between atoms: _419  and  _420
REMARK  180  A    between atoms: _424  and  _426
REMARK  181  A    between atoms: _426  and  _427
REMARK  182  A    between atoms: _426  and  _429
REMARK  183  A    between atoms: _429  and  _430
REMARK  184  A    between atoms: _435  and  _437
REMARK  185  A    between atoms: _437  and  _438
REMARK  186  A    between atoms: _437  and  _440
REMARK  187  A    between atoms: _440  and  _441
REMARK  188  A    between atoms: _444  and  _446
REMARK  189  A    between atoms: _446  and  _447
REMARK  190  A    between atoms: _446  and  _449
REMARK  191  A    between atoms: _449  and  _450
REMARK  192  A    between atoms: _453  and  _455
REMARK  193  A    between atoms: _455  and  _456
REMARK  194  A    between atoms: _458  and  _460
REMARK  195  A    between atoms: _460  and  _461
REMARK  196  A    between atoms: _460  and  _463
REMARK  197  A    between atoms: _463  and  _464
REMARK  198  A    between atoms: _469  and  _471
REMARK  199  A    between atoms: _471  and  _472
REMARK  200  A    between atoms: _471  and  _474
REMARK  201  A    between atoms: _474  and  _475
REMARK  202  A    between atoms: _478  and  _480
REMARK  203  A    between atoms: _480  and  _481
REMARK  204  A    between atoms: _480  and  _483
REMARK  205  A    between atoms: _486  and  _488
REMARK  206  A    between atoms: _488  and  _489
REMARK  207  A    between atoms: _488  and  _491
REMARK  208  A    between atoms: _491  and  _492
REMARK  209  A    between atoms: _497  and  _499
REMARK  210  A    between atoms: _499  and  _500
REMARK  211  A    between atoms: _499  and  _502
REMARK  212  A    between atoms: _502  and  _503
REMARK  213  A    between atoms: _508  and  _509
REMARK  214  A    between atoms: _511  and  _513
REMARK  215  A    between atoms: _513  and  _514
REMARK  216  A    between atoms: _513  and  _516
REMARK  217  A    between atoms: _516  and  _517
REMARK  218  A    between atoms: _517  and  _518
REMARK                            x       y       z     vdW  Elec       q    Type
REMARK                         _______ _______ _______ _____ _____    ______ ____
ROOT
ATOM      1  C   ILE A   5       0.703 -31.683 -27.049  0.00  0.00    +0.241 C 
ATOM      2  N   GLY A   6       0.189 -32.848 -26.664  0.00  0.00    -0.295 N 
ATOM      3  H   GLY A   6      -0.676 -32.862 -26.087  0.00  0.00    +0.150 HD
ATOM      4  O   ILE A   5       1.821 -31.582 -27.559  0.00  0.00    -0.273 OA
ENDROOT
BRANCH   2   5
ATOM      5  CA  GLY A   6       0.822 -34.105 -27.040  0.00  0.00    +0.176 C 
BRANCH   5   6
ATOM      6  C   GLY A   6       1.350 -34.744 -25.780  0.00  0.00    +0.243 C 
ATOM      7  O   GLY A   6       0.568 -35.276 -24.987  0.00  0.00    -0.273 OA
ATOM      8  N   ALA A   7       2.667 -34.661 -25.588  0.00  0.00    -0.297 N 
ATOM      9  H   ALA A   7       3.245 -34.146 -26.283  0.00  0.00    +0.150 HD
BRANCH   8  10
ATOM     10  CA  ALA A   7       3.324 -35.269 -24.435  0.00  0.00    +0.149 C 
ATOM     11  CB  ALA A   7       4.827 -35.023 -24.465  0.00  0.00    +0.031 C 
BRANCH  10  12
ATOM     12  C   ALA A   7       2.726 -34.749 -23.127  0.00  0.00    +0.241 C 
ATOM     13  O   ALA A   7       2.598 -35.510 -22.162  0.00  0.00    -0.273 OA
ATOM     14  N   GLN A   8       2.349 -33.471 -23.114  0.00  0.00    -0.297 N 
ATOM     15  H   GLN A   8       2.424 -32.916 -23.990  0.00  0.00    +0.150 HD
BRANCH  14  16
ATOM     16  CA  GLN A   8       1.833 -32.822 -21.908  0.00  0.00    +0.149 C 
BRANCH  16  17
ATOM     17  C   GLN A   8       0.305 -32.805 -21.813  0.00  0.00    +0.241 C 
ATOM     18  O   GLN A   8      -0.254 -32.240 -20.869  0.00  0.00    -0.273 OA
ATOM     19  N   ASN A   9      -0.331 -33.367 -22.837  0.00  0.00    -0.297 N 
ATOM     20  H   ASN A   9       0.208 -33.530 -23.711  0.00  0.00    +0.150 HD
BRANCH  19  21
ATOM     21  CA  ASN A   9      -1.743 -33.774 -22.819  0.00  0.00    +0.158 C 
BRANCH  21  22
ATOM     22  C   ASN A   9      -2.800 -32.673 -22.916  0.00  0.00    +0.241 C 
ATOM     23  O   ASN A   9      -3.994 -32.966 -22.785  0.00  0.00    -0.273 OA
ATOM     24  N   GLY A  10      -2.378 -31.433 -23.175  0.00  0.00    -0.296 N 
ATOM     25  H   GLY A  10      -1.361 -31.263 -23.308  0.00  0.00    +0.150 HD
BRANCH  24  26
ATOM     26  CA  GLY A  10      -3.310 -30.300 -23.277  0.00  0.00    +0.163 C 
BRANCH  26  27
ATOM     27  C   GLY A  10      -4.427 -30.590 -24.274  0.00  0.00    +0.229 C 
ATOM     28  O   GLY A  10      -4.267 -31.449 -25.141  0.00  0.00    -0.286 OA
ENDBRANCH  26  27
ENDBRANCH  24  26
ENDBRANCH  21  22
BRANCH  21  29
ATOM     29  CB  ASN A   9      -2.038 -34.696 -21.625  0.00  0.00    +0.114 C 
BRANCH  29  30
ATOM     30  CG  ASN A   9      -1.532 -36.116 -21.829  0.00  0.00    +0.222 C 
ATOM     31  OD1 ASN A   9      -1.334 -36.847 -20.860  0.00  0.00    -0.275 OA
ATOM     32  ND2 ASN A   9      -1.328 -36.517 -23.081  0.00  0.00    -0.329 N 
ATOM     33 HD21 ASN A   9      -0.988 -37.482 -23.269  0.00  0.00    +0.145 HD
ATOM     34 HD22 ASN A   9      -1.508 -35.866 -23.872  0.00  0.00    +0.145 HD
ENDBRANCH  29  30
ENDBRANCH  21  29
ENDBRANCH  19  21
ENDBRANCH  16  17
BRANCH  16  35
ATOM     35  CB  GLN A   8       2.385 -31.404 -21.793  0.00  0.00    +0.039 C 
BRANCH  35  36
ATOM     36  CG  GLN A   8       3.890 -31.399 -21.602  0.00  0.00    +0.087 C 
BRANCH  36  37
ATOM     37  CD  GLN A   8       4.417 -29.985 -21.506  0.00  0.00    +0.219 C 
ATOM     38  OE1 GLN A   8       4.064 -29.250 -20.576  0.00  0.00    -0.275 OA
ATOM     39  NE2 GLN A   8       5.226 -29.582 -22.492  0.00  0.00    -0.329 N 
ATOM     40 HE21 GLN A   8       5.590 -28.608 -22.501  0.00  0.00    +0.145 HD
ATOM     41 HE22 GLN A   8       5.491 -30.243 -23.250  0.00  0.00    +0.145 HD
ENDBRANCH  36  37
ENDBRANCH  35  36
ENDBRANCH  16  35
ENDBRANCH  14  16
ENDBRANCH  10  12
ENDBRANCH   8  10
ENDBRANCH   5   6
ENDBRANCH   2   5
BRANCH   1  42
ATOM     42  CA  ILE A   5      -0.172 -30.451 -26.823  0.00  0.00    +0.149 C 
BRANCH  42  45
ATOM     43  C   GLY A   4       0.703 -29.386 -24.773  0.00  0.00    +0.243 C 
ATOM     44  O   GLY A   4       0.092 -30.132 -24.008  0.00  0.00    -0.273 OA
ATOM     45  N   ILE A   5       0.560 -29.402 -26.102  0.00  0.00    -0.297 N 
ATOM     46  H   ILE A   5       0.989 -28.632 -26.654  0.00  0.00    +0.150 HD
BRANCH  43  47
ATOM     47  CA  GLY A   4       1.679 -28.380 -24.186  0.00  0.00    +0.176 C 
BRANCH  47  50
ATOM     48  C   PRO A   3       2.274 -26.289 -25.222  0.00  0.00    +0.241 C 
ATOM     49  O   PRO A   3       1.498 -25.700 -24.465  0.00  0.00    -0.273 OA
ATOM     50  N   GLY A   4       2.418 -27.607 -25.194  0.00  0.00    -0.295 N 
ATOM     51  H   GLY A   4       3.043 -28.085 -25.874  0.00  0.00    +0.150 HD
BRANCH  48  57
ATOM     52  C   SER A   2       1.740 -23.846 -27.345  0.00  0.00    +0.246 C 
ATOM     53  N   PRO A   3       2.658 -24.112 -26.400  0.00  0.00    -0.272 N 
ATOM     54  CD  PRO A   3       3.259 -23.159 -25.440  0.00  0.00    +0.094 C 
ATOM     55  CG  PRO A   3       4.380 -23.970 -24.809  0.00  0.00    +0.024 C 
ATOM     56  CB  PRO A   3       4.525 -25.273 -25.592  0.00  0.00    +0.031 C 
ATOM     57  CA  PRO A   3       3.144 -25.490 -26.206  0.00  0.00    +0.152 C 
ATOM     58  O   SER A   2       1.356 -24.702 -28.150  0.00  0.00    -0.273 OA
BRANCH  52  59
ATOM     59  CA  SER A   2       1.187 -22.421 -27.419  0.00  0.00    +0.178 C 
BRANCH  59  62
ATOM     60  C   LEU A   1       2.394 -20.424 -28.109  0.00  0.00    +0.238 C 
ATOM     61  O   LEU A   1       2.534 -20.064 -26.956  0.00  0.00    -0.274 OA
ATOM     62  N   SER A   2       1.843 -21.594 -28.442  0.00  0.00    -0.295 N 
ATOM     63  H   SER A   2       1.878 -21.921 -29.429  0.00  0.00    +0.150 HD
BRANCH  60  64
ATOM     64  CA  LEU A   1       2.847 -19.484 -29.237  0.00  0.00    +0.145 C 
BRANCH  64  65
ATOM     65  N   LEU A   1       2.164 -18.226 -29.034  0.00  0.00    -0.238 NA
ATOM     66  H   LEU A   1       2.390 -17.660 -28.191  0.00  0.00    +0.142 HD
ENDBRANCH  64  65
BRANCH  64  67
ATOM     67  CB  LEU A   1       4.354 -19.248 -29.192  0.00  0.00    +0.026 C 
BRANCH  67  68
ATOM     68  CG  LEU A   1       5.265 -20.478 -29.045  0.00  0.00    +0.002 C 
ATOM     69  CD2 LEU A   1       6.742 -20.066 -28.886  0.00  0.00    +0.000 C 
ATOM     70  CD1 LEU A   1       5.191 -21.539 -30.184  0.00  0.00    +0.000 C 
ENDBRANCH  67  68
ENDBRANCH  64  67
ENDBRANCH  60  64
ENDBRANCH  59  62
BRANCH  59  71
ATOM     71  CB  SER A   2      -0.344 -22.421 -27.615  0.00  0.00    +0.166 C 
BRANCH  71  72
ATOM     72  OG  SER A   2      -0.982 -23.045 -26.505  0.00  0.00    -0.380 OA
ATOM     73  H   SER A   2      -0.761 -22.549 -25.677  0.00  0.00    +0.211 HD
ENDBRANCH  71  72
ENDBRANCH  59  71
ENDBRANCH  52  59
ENDBRANCH  48  57
ENDBRANCH  47  50
ENDBRANCH  43  47
ENDBRANCH  42  45
BRANCH  42  74
ATOM     74  CB  ILE A   5      -0.700 -29.955 -28.194  0.00  0.00    +0.027 C 
ATOM     75  CG2 ILE A   5      -1.379 -31.076 -28.977  0.00  0.00    +0.002 C 
BRANCH  74  76
ATOM     76  CG1 ILE A   5      -1.682 -28.799 -27.986  0.00  0.00    +0.002 C 
ATOM     77  CD1 ILE A   5      -2.807 -29.148 -27.051  0.00  0.00    +0.000 C 
ENDBRANCH  74  76
ENDBRANCH  42  74
ENDBRANCH   1  42
TORSDOF 30
REMARK  Name = ../refined-set-2016/2q8z/2q8z_pocket.pdb
REMARK  218 active torsions:
REMARK  status: ('A' for Active; 'I' for Inactive)
REMARK    1  A    between atoms: _1  and  _3
REMARK    2  A    between atoms: _3  and  _4
REMARK    3  A    between atoms: _3  and  _6
REMARK    4  A    between atoms: _8  and  _10
REMARK    5  A    between atoms: _10  and  _11
REMARK    6  A    between atoms: _10  and  _13
REMARK    7  A    between atoms: _13  and  _14
REMARK    8  A    between atoms: _17  and  _19
REMARK    9  A    between atoms: _19  and  _20
REMARK   10  A    between atoms: _22  and  _24
REMARK   11  A    between atoms: _24  and  _25
REMARK   12  A    between atoms: _24  and  _27
REMARK   13  A    between atoms: _27  and  _28
REMARK   14  A    between atoms: _31  and  _33
REMARK   15  A    between atoms: _33  and  _34
REMARK   16  A    between atoms: _33  and  _36
REMARK   17  A    between atoms: _36  and  _37
REMARK   18  A    between atoms: _40  and  _42
REMARK   19  A    between atoms: _42  and  _43
REMARK   20  A    between atoms: _42  and  _45
REMARK   21  A    between atoms: _45  and  _46
REMARK   22  A    between atoms: _46  and  _47
REMARK   23  A    between atoms: _47  and  _48
REMARK   24  A    between atoms: _48  and  _49
REMARK   25  A    between atoms: _53  and  _55
REMARK   26  A    between atoms: _55  and  _56
REMARK   27  A    between atoms: _55  and  _58
REMARK   28  A    between atoms: _58  and  _59
REMARK   29  A    between atoms: _59  and  _60
REMARK   30  A    between atoms: _62  and  _64
REMARK   31  A    between atoms: _64  and  _65
REMARK   32  A    between atoms: _64  and  _67
REMARK   33  A    between atoms: _67  and  _68
REMARK   34  A    between atoms: _73  and  _75
REMARK   35  A    between atoms: _75  and  _76
REMARK   36  A    between atoms: _75  and  _78
REMARK   37  A    between atoms: _78  and  _79
REMARK   38  A    between atoms: _85  and  _87
REMARK   39  A    between atoms: _87  and  _88
REMARK   40  A    between atoms: _91  and  _93
REMARK   41  A    between atoms: _93  and  _94
REMARK   42  A    between atoms: _93  and  _96
REMARK   43  A    between atoms: _96  and  _97
REMARK   44  A    between atoms: _103  and  _105
REMARK   45  A    between atoms: _105  and  _106
REMARK   46  A    between atoms: _105  and  _108
REMARK   47  A    between atoms: _108  and  _109
REMARK   48  A    between atoms: _112  and  _114
REMARK   49  A    between atoms: _114  and  _115
REMARK   50  A    between atoms: _114  and  _117
REMARK   51  A    between atoms: _117  and  _118
REMARK   52  A    between atoms: _118  and  _119
REMARK   53  A    between atoms: _121  and  _123
REMARK   54  A    between atoms: _123  and  _124
REMARK   55  A    between atoms: _123  and  _126
REMARK   56  A    between atoms: _126  and  _127
REMARK   57  A    between atoms: _127  and  _128
REMARK   58  A    between atoms: _128  and  _129
REMARK   59  A    between atoms: _129  and  _130
REMARK   60  A    between atoms: _134  and  _136
REMARK   61  A    between atoms: _136  and  _137
REMARK   62  A    between atoms: _136  and  _139
REMARK   63  A    between atoms: _139  and  _140
REMARK   64  A    between atoms: _143  and  _145
REMARK   65  A    between atoms: _145  and  _146
REMARK   66  A    between atoms: _145  and  _148
REMARK   67  A    between atoms: _148  and  _149
REMARK   68  A    between atoms: _152  and  _154
REMARK   69  A    between atoms: _154  and  _155
REMARK   70  A    between atoms: _154  and  _157
REMARK   71  A    between atoms: _160  and  _162
REMARK   72  A    between atoms: _162  and  _163
REMARK   73  A    between atoms: _162  and  _165
REMARK   74  A    between atoms: _165  and  _166
REMARK   75  A    between atoms: _166  and  _167
REMARK   76  A    between atoms: _167  and  _168
REMARK   77  A    between atoms: _168  and  _169
REMARK   78  A    between atoms: _173  and  _175
REMARK   79  A    between atoms: _175  and  _176
REMARK   80  A    between atoms: _175  and  _178
REMARK   81  A    between atoms: _178  and  _179
REMARK   82  A    between atoms: _182  and  _184
REMARK   83  A    between atoms: _184  and  _185
REMARK   84  A    between atoms: _184  and  _187
REMARK   85  A    between atoms: _187  and  _188
REMARK   86  A    between atoms: _191  and  _193
REMARK   87  A    between atoms: _193  and  _194
REMARK   88  A    between atoms: _193  and  _196
REMARK   89  A    between atoms: _196  and  _197
REMARK   90  A    between atoms: _202  and  _204
REMARK   91  A    between atoms: _204  and  _205
REMARK   92  A    between atoms: _204  and  _207
REMARK   93  A    between atoms: _207  and  _208
REMARK   94  A    between atoms: _210  and  _212
REMARK   95  A    between atoms: _212  and  _213
REMARK   96  A    between atoms: _212  and  _215
REMARK   97  A    between atoms: _215  and  _216
REMARK   98  A    between atoms: _216  and  _217
REMARK   99  A    between atoms: _222  and  _224
REMARK  100  A    between atoms: _224  and  _225
REMARK  101  A    between atoms: _224  and  _227
REMARK  102  A    between atoms: _230  and  _232
REMARK  103  A    between atoms: _232  and  _233
REMARK  104  A    between atoms: _232  and  _235
REMARK  105  A    between atoms: _238  and  _240
REMARK  106  A    between atoms: _240  and  _241
REMARK  107  A    between atoms: _243  and  _245
REMARK  108  A    between atoms: _245  and  _246
REMARK  109  A    between atoms: _249  and  _251
REMARK  110  A    between atoms: _251  and  _252
REMARK  111  A    between atoms: _251  and  _254
REMARK  112  A    between atoms: _254  and  _255
REMARK  113  A    between atoms: _260  and  _262
REMARK  114  A    between atoms: _262  and  _263
REMARK  115  A    between atoms: _262  and  _265
REMARK  116  A    between atoms: _265  and  _266
REMARK  117  A    between atoms: _268  and  _270
REMARK  118  A    between atoms: _270  and  _271
REMARK  119  A    between atoms: _270  and  _273
REMARK  120  A    between atoms: _273  and  _274
REMARK  121  A    between atoms: _277  and  _279
REMARK  122  A    between atoms: _279  and  _280
REMARK  123  A    between atoms: _279  and  _282
REMARK  124  A    between atoms: _282  and  _283
REMARK  125  A    between atoms: _286  and  _287
REMARK  126  A    between atoms: _292  and  _294
REMARK  127  A    between atoms: _294  and  _295
REMARK  128  A    between atoms: _297  and  _299
REMARK  129  A    between atoms: _299  and  _300
REMARK  130  A    between atoms: _299  and  _302
REMARK  131  A    between atoms: _302  and  _303
REMARK  132  A    between atoms: _306  and  _308
REMARK  133  A    between atoms: _308  and  _309
REMARK  134  A    between atoms: _311  and  _313
REMARK  135  A    between atoms: _313  and  _314
REMARK  136  A    between atoms: _317  and  _319
REMARK  137  A    between atoms: _319  and  _320
REMARK  138  A    between atoms: _319  and  _322
REMARK  139  A    between atoms: _322  and  _323
REMARK  140  A    between atoms: _323  and  _324
REMARK  141  A    between atoms: _329  and  _331
REMARK  142  A    between atoms: _331  and  _332
REMARK  143  A    between atoms: _331  and  _334
REMARK  144  A    between atoms: _334  and  _335
REMARK  145  A    between atoms: _340  and  _342
REMARK  146  A    between atoms: _342  and  _343
REMARK  147  A    between atoms: _345  and  _347
REMARK  148  A    between atoms: _347  and  _348
REMARK  149  A    between atoms: _347  and  _350
REMARK  150  A    between atoms: _350  and  _351
REMARK  151  A    between atoms: _356  and  _358
REMARK  152  A    between atoms: _358  and  _359
REMARK  153  A    between atoms: _358  and  _361
REMARK  154  A    between atoms: _361  and  _362
REMARK  155  A    between atoms: _365  and  _367
REMARK  156  A    between atoms: _367  and  _368
REMARK  157  A    between atoms: _370  and  _372
REMARK  158  A    between atoms: _372  and  _373
REMARK  159  A    between atoms: _372  and  _375
REMARK  160  A    between atoms: _375  and  _376
REMARK  161  A    between atoms: _376  and  _377
REMARK  162  A    between atoms: _377  and  _378
REMARK  163  A    between atoms: _387  and  _389
REMARK  164  A    between atoms: _389  and  _390
REMARK  165  A    between atoms: _393  and  _395
REMARK  166  A    between atoms: _395  and  _396
REMARK  167  A    between atoms: _395  and  _398
REMARK  168  A    between atoms: _398  and  _399
REMARK  169  A    between atoms: _402  and  _404
REMARK  170  A    between atoms: _404  and  _405
REMARK  171  A    between atoms: _404  and  _407
REMARK  172  A    between atoms: _407  and  _408
REMARK  173  A    between atoms: _411  and  _413
REMARK  174  A    between atoms: _413  and  _414
REMARK  175  A    between atoms: _413  and  _416
REMARK  176  A    between atoms: _416  and  _417
REMARK  177  A    between atoms: _417  and  _418
REMARK  178  A    between atoms: _418  and  _419
REMARK  179  A    between atoms: _419  and  _420
REMARK  180  A    between atoms: _424  and  _426
REMARK  181  A    between atoms: _426  and  _427
REMARK  182  A    between atoms: _426  and  _429
REMARK  183  A    between atoms: _429  and  _430
REMARK  184  A    between atoms: _435  and  _437
REMARK  185  A    between atoms: _437  and  _438
REMARK  186  A    between atoms: _437  and  _440
REMARK  187  A    between atoms: _440  and  _441
REMARK  188  A    between atoms: _444  and  _446
REMARK  189  A    between atoms: _446  and  _447
REMARK  190  A    between atoms: _446  and  _449
REMARK  191  A    between atoms: _449  and  _450
REMARK  192  A    between atoms: _453  and  _455
REMARK  193  A    between atoms: _455  and  _456
REMARK  194  A    between atoms: _458  and  _460
REMARK  195  A    between atoms: _460  and  _461
REMARK  196  A    between atoms: _460  and  _463
REMARK  197  A    between atoms: _463  and  _464
REMARK  198  A    between atoms: _469  and  _471
REMARK  199  A    between atoms: _471  and  _472
REMARK  200  A    between atoms: _471  and  _474
REMARK  201  A    between atoms: _474  and  _475
REMARK  202  A    between atoms: _478  and  _480
REMARK  203  A    between atoms: _480  and  _481
REMARK  204  A    between atoms: _480  and  _483
REMARK  205  A    between atoms: _486  and  _488
REMARK  206  A    between atoms: _488  and  _489
REMARK  207  A    between atoms: _488  and  _491
REMARK  208  A    between atoms: _491  and  _492
REMARK  209  A    between atoms: _497  and  _499
REMARK  210  A    between atoms: _499  and  _500
REMARK  211  A    between atoms: _499  and  _502
REMARK  212  A    between atoms: _502  and  _503
REMARK  213  A    between atoms: _508  and  _509
REMARK  214  A    between atoms: _511  and  _513
REMARK  215  A    between atoms: _513  and  _514
REMARK  216  A    between atoms: _513  and  _516
REMARK  217  A    between atoms: _516  and  _517
REMARK  218  A    between atoms: _517  and  _518
REMARK                            x       y       z     vdW  Elec       q    Type
REMARK                         _______ _______ _______ _____ _____    ______ ____
ROOT
ATOM      1  CA  ARG A   4       7.743 -35.503 -28.553  0.00  0.00    +0.149 C 
ENDROOT
BRANCH   1   3
ATOM      2  C   GLY A   3       7.431 -33.512 -29.955  0.00  0.00    +0.243 C 
ATOM      3  N   ARG A   4       7.544 -34.070 -28.748  0.00  0.00    -0.297 N 
ATOM      4  H   ARG A   4       7.488 -33.457 -27.910  0.00  0.00    +0.150 HD
ATOM      5  O   GLY A   3       7.381 -34.166 -30.983  0.00  0.00    -0.273 OA
BRANCH   2   6
ATOM      6  CA  GLY A   3       7.337 -31.997 -30.006  0.00  0.00    +0.176 C 
BRANCH   6   8
ATOM      7  C   ILE A   2       5.407 -30.934 -31.082  0.00  0.00    +0.241 C 
ATOM      8  N   GLY A   3       5.955 -31.489 -29.997  0.00  0.00    -0.295 N 
ATOM      9  H   GLY A   3       5.392 -31.564 -29.126  0.00  0.00    +0.150 HD
ATOM     10  O   ILE A   2       5.977 -30.876 -32.170  0.00  0.00    -0.273 OA
BRANCH   7  11
ATOM     11  CA  ILE A   2       3.984 -30.366 -30.919  0.00  0.00    +0.148 C 
BRANCH  11  14
ATOM     12  C   ASN A   1       3.436 -28.048 -30.383  0.00  0.00    +0.239 C 
ATOM     13  O   ASN A   1       2.830 -28.373 -29.354  0.00  0.00    -0.274 OA
ATOM     14  N   ILE A   2       3.987 -28.936 -31.212  0.00  0.00    -0.297 N 
ATOM     15  H   ILE A   2       4.431 -28.600 -32.091  0.00  0.00    +0.150 HD
BRANCH  12  16
ATOM     16  CA  ASN A   1       3.674 -26.574 -30.731  0.00  0.00    +0.154 C 
BRANCH  16  17
ATOM     17  N   ASN A   1       2.442 -25.776 -30.739  0.00  0.00    -0.238 NA
ATOM     18  H   ASN A   1       2.197 -25.188 -29.917  0.00  0.00    +0.142 HD
ENDBRANCH  16  17
BRANCH  16  19
ATOM     19  CB  ASN A   1       4.687 -25.994 -29.741  0.00  0.00    +0.111 C 
BRANCH  19  20
ATOM     20  CG  ASN A   1       5.998 -26.756 -29.766  0.00  0.00    +0.221 C 
ATOM     21  ND2 ASN A   1       6.229 -27.577 -28.748  0.00  0.00    -0.329 N 
ATOM     22 HD21 ASN A   1       5.535 -27.658 -27.977  0.00  0.00    +0.145 HD
ATOM     23 HD22 ASN A   1       7.104 -28.139 -28.721  0.00  0.00    +0.145 HD
ATOM     24  OD1 ASN A   1       6.783 -26.622 -30.702  0.00  0.00    -0.275 OA
ENDBRANCH  19  20
ENDBRANCH  16  19
ENDBRANCH  12  16
ENDBRANCH  11  14
BRANCH  11  25
ATOM     25  CB  ILE A   2       2.954 -31.139 -31.790  0.00  0.00    +0.027 C 
ATOM     26  CG2 ILE A   2       2.995 -32.637 -31.450  0.00  0.00    +0.002 C 
BRANCH  25  27
ATOM     27  CG1 ILE A   2       1.558 -30.525 -31.588  0.00  0.00    +0.002 C 
ATOM     28  CD1 ILE A   2       0.519 -31.047 -32.545  0.00  0.00    +0.000 C 
ENDBRANCH  25  27
ENDBRANCH  11  25
ENDBRANCH   7  11
ENDBRANCH   6   8
ENDBRANCH   2   6
ENDBRANCH   1   3
BRANCH   1  29
ATOM     29  C   ARG A   4       6.685 -36.365 -29.216  0.00  0.00    +0.241 C 
ATOM     30  N   ALA A   5       5.441 -35.905 -29.247  0.00  0.00    -0.297 N 
ATOM     31  H   ALA A   5       5.197 -35.012 -28.772  0.00  0.00    +0.150 HD
ATOM     32  O   ARG A   4       6.979 -37.436 -29.711  0.00  0.00    -0.273 OA
BRANCH  30  33
ATOM     33  CA  ALA A   5       4.416 -36.671 -29.959  0.00  0.00    +0.149 C 
ATOM     34  CB  ALA A   5       3.055 -35.984 -29.804  0.00  0.00    +0.031 C 
BRANCH  33  35
ATOM     35  C   ALA A   5       4.749 -36.961 -31.433  0.00  0.00    +0.241 C 
ATOM     36  O   ALA A   5       4.288 -37.964 -32.009  0.00  0.00    -0.273 OA
ATOM     37  N   ILE A   6       5.557 -36.095 -32.050  0.00  0.00    -0.297 N 
ATOM     38  H   ILE A   6       5.840 -35.233 -31.541  0.00  0.00    +0.150 HD
BRANCH  37  39
ATOM     39  CA  ILE A   6       6.063 -36.301 -33.407  0.00  0.00    +0.149 C 
BRANCH  39  40
ATOM     40  C   ILE A   6       7.449 -36.962 -33.368  0.00  0.00    +0.241 C 
ATOM     41  N   THR A   7       8.382 -36.391 -32.608  0.00  0.00    -0.295 N 
ATOM     42  H   THR A   7       8.110 -35.637 -31.946  0.00  0.00    +0.150 HD
ATOM     43  O   ILE A   6       7.636 -38.025 -33.971  0.00  0.00    -0.273 OA
BRANCH  41  44
ATOM     44  CA  THR A   7       9.805 -36.813 -32.690  0.00  0.00    +0.176 C 
BRANCH  44  45
ATOM     45  C   THR A   7      10.125 -38.169 -32.039  0.00  0.00    +0.243 C 
ATOM     46  N   LYS A   8       9.309 -38.570 -31.063  0.00  0.00    -0.298 N 
ATOM     47  H   LYS A   8       8.589 -37.913 -30.700  0.00  0.00    +0.150 HD
ATOM     48  O   THR A   7      11.122 -38.836 -32.405  0.00  0.00    -0.273 OA
BRANCH  46  49
ATOM     49  CA  LYS A   8       9.406 -39.919 -30.491  0.00  0.00    +0.137 C 
BRANCH  49  50
ATOM     50  C   LYS A   8       8.549 -40.975 -31.194  0.00  0.00    +0.227 C 
ATOM     51  O   LYS A   8       8.593 -42.163 -30.850  0.00  0.00    -0.286 OA
ENDBRANCH  49  50
BRANCH  49  52
ATOM     52  CB  LYS A   8       9.159 -39.901 -28.979  0.00  0.00    +0.028 C 
BRANCH  52  53
ATOM     53  CG  LYS A   8      10.264 -39.145 -28.252  0.00  0.00    -0.000 C 
BRANCH  53  54
ATOM     54  CD  LYS A   8      10.028 -39.042 -26.762  0.00  0.00    -0.024 C 
BRANCH  54  55
ATOM     55  CE  LYS A   8      11.234 -38.388 -26.091  0.00  0.00    -0.086 C 
BRANCH  55  56
ATOM     56  NZ  LYS A   8      12.403 -39.342 -26.057  0.00  0.00    +0.380 N 
ATOM     57  HZ1 LYS A   8      12.139 -40.193 -25.521  0.00  0.00    -0.089 HD
ATOM     58  HZ2 LYS A   8      13.213 -38.879 -25.597  0.00  0.00    -0.089 HD
ATOM     59  HZ3 LYS A   8      12.660 -39.608 -27.029  0.00  0.00    -0.089 HD
ENDBRANCH  55  56
ENDBRANCH  54  55
ENDBRANCH  53  54
ENDBRANCH  52  53
ENDBRANCH  49  52
ENDBRANCH  46  49
ENDBRANCH  44  45
BRANCH  44  60
ATOM     60  CB  THR A   7      10.764 -35.728 -32.118  0.00  0.00    +0.137 C 
ATOM     61  CG2 THR A   7      10.601 -34.382 -32.853  0.00  0.00    +0.034 C 
BRANCH  60  62
ATOM     62  OG1 THR A   7      10.461 -35.513 -30.737  0.00  0.00    -0.382 OA
ATOM     63  HG1 THR A   7      11.069 -34.823 -30.370  0.00  0.00    +0.210 HD
ENDBRANCH  60  62
ENDBRANCH  44  60
ENDBRANCH  41  44
ENDBRANCH  39  40
BRANCH  39  64
ATOM     64  CB  ILE A   6       6.078 -34.969 -34.213  0.00  0.00    +0.027 C 
ATOM     65  CG2 ILE A   6       6.886 -35.100 -35.510  0.00  0.00    +0.002 C 
BRANCH  64  66
ATOM     66  CG1 ILE A   6       4.647 -34.470 -34.500  0.00  0.00    +0.002 C 
ATOM     67  CD1 ILE A   6       4.536 -32.994 -35.002  0.00  0.00    +0.000 C 
ENDBRANCH  64  66
ENDBRANCH  39  64
ENDBRANCH  37  39
ENDBRANCH  33  35
ENDBRANCH  30  33
ENDBRANCH   1  29
BRANCH   1  68
ATOM     68  CB  ARG A   4       7.779 -35.834 -27.051  0.00  0.00    +0.033 C 
BRANCH  68  69
ATOM     69  CG  ARG A   4       9.032 -35.318 -26.376  0.00  0.00    +0.045 C 
BRANCH  69  70
ATOM     70  CD  ARG A   4       8.926 -35.343 -24.866  0.00  0.00    +0.174 C 
BRANCH  70  71
ATOM     71  NE  ARG A   4       8.152 -34.223 -24.348  0.00  0.00    -0.265 N 
ATOM     72  CZ  ARG A   4       7.844 -34.081 -23.059  0.00  0.00    +0.342 C 
ATOM     73  NH2 ARG A   4       8.222 -35.007 -22.181  0.00  0.00    -0.292 N 
ATOM     74 HH21 ARG A   4       7.983 -34.898 -21.175  0.00  0.00    +0.255 HD
ATOM     75 HH22 ARG A   4       8.757 -35.840 -22.501  0.00  0.00    +0.255 HD
ATOM     76  NH1 ARG A   4       7.124 -33.041 -22.656  0.00  0.00    -0.292 N 
ATOM     77 HH11 ARG A   4       6.885 -32.933 -21.650  0.00  0.00    +0.255 HD
ATOM     78 HH12 ARG A   4       6.799 -32.335 -23.347  0.00  0.00    +0.255 HD
ATOM     79  HE  ARG A   4       7.823 -33.498 -25.017  0.00  0.00    +0.259 HD
ENDBRANCH  70  71
ENDBRANCH  69  70
ENDBRANCH  68  69
ENDBRANCH   1  68
TORSDOF 33
REMARK  Name = ../refined-set-2016/2q8z/2q8z_pocket.pdb
REMARK  218 active torsions:
REMARK  status: ('A' for Active; 'I' for Inactive)
REMARK    1  A    between atoms: _1  and  _3
REMARK    2  A    between atoms: _3  and  _4
REMARK    3  A    between atoms: _3  and  _6
REMARK    4  A    between atoms: _8  and  _10
REMARK    5  A    between atoms: _10  and  _11
REMARK    6  A    between atoms: _10  and  _13
REMARK    7  A    between atoms: _13  and  _14
REMARK    8  A    between atoms: _17  and  _19
REMARK    9  A    between atoms: _19  and  _20
REMARK   10  A    between atoms: _22  and  _24
REMARK   11  A    between atoms: _24  and  _25
REMARK   12  A    between atoms: _24  and  _27
REMARK   13  A    between atoms: _27  and  _28
REMARK   14  A    between atoms: _31  and  _33
REMARK   15  A    between atoms: _33  and  _34
REMARK   16  A    between atoms: _33  and  _36
REMARK   17  A    between atoms: _36  and  _37
REMARK   18  A    between atoms: _40  and  _42
REMARK   19  A    between atoms: _42  and  _43
REMARK   20  A    between atoms: _42  and  _45
REMARK   21  A    between atoms: _45  and  _46
REMARK   22  A    between atoms: _46  and  _47
REMARK   23  A    between atoms: _47  and  _48
REMARK   24  A    between atoms: _48  and  _49
REMARK   25  A    between atoms: _53  and  _55
REMARK   26  A    between atoms: _55  and  _56
REMARK   27  A    between atoms: _55  and  _58
REMARK   28  A    between atoms: _58  and  _59
REMARK   29  A    between atoms: _59  and  _60
REMARK   30  A    between atoms: _62  and  _64
REMARK   31  A    between atoms: _64  and  _65
REMARK   32  A    between atoms: _64  and  _67
REMARK   33  A    between atoms: _67  and  _68
REMARK   34  A    between atoms: _73  and  _75
REMARK   35  A    between atoms: _75  and  _76
REMARK   36  A    between atoms: _75  and  _78
REMARK   37  A    between atoms: _78  and  _79
REMARK   38  A    between atoms: _85  and  _87
REMARK   39  A    between atoms: _87  and  _88
REMARK   40  A    between atoms: _91  and  _93
REMARK   41  A    between atoms: _93  and  _94
REMARK   42  A    between atoms: _93  and  _96
REMARK   43  A    between atoms: _96  and  _97
REMARK   44  A    between atoms: _103  and  _105
REMARK   45  A    between atoms: _105  and  _106
REMARK   46  A    between atoms: _105  and  _108
REMARK   47  A    between atoms: _108  and  _109
REMARK   48  A    between atoms: _112  and  _114
REMARK   49  A    between atoms: _114  and  _115
REMARK   50  A    between atoms: _114  and  _117
REMARK   51  A    between atoms: _117  and  _118
REMARK   52  A    between atoms: _118  and  _119
REMARK   53  A    between atoms: _121  and  _123
REMARK   54  A    between atoms: _123  and  _124
REMARK   55  A    between atoms: _123  and  _126
REMARK   56  A    between atoms: _126  and  _127
REMARK   57  A    between atoms: _127  and  _128
REMARK   58  A    between atoms: _128  and  _129
REMARK   59  A    between atoms: _129  and  _130
REMARK   60  A    between atoms: _134  and  _136
REMARK   61  A    between atoms: _136  and  _137
REMARK   62  A    between atoms: _136  and  _139
REMARK   63  A    between atoms: _139  and  _140
REMARK   64  A    between atoms: _143  and  _145
REMARK   65  A    between atoms: _145  and  _146
REMARK   66  A    between atoms: _145  and  _148
REMARK   67  A    between atoms: _148  and  _149
REMARK   68  A    between atoms: _152  and  _154
REMARK   69  A    between atoms: _154  and  _155
REMARK   70  A    between atoms: _154  and  _157
REMARK   71  A    between atoms: _160  and  _162
REMARK   72  A    between atoms: _162  and  _163
REMARK   73  A    between atoms: _162  and  _165
REMARK   74  A    between atoms: _165  and  _166
REMARK   75  A    between atoms: _166  and  _167
REMARK   76  A    between atoms: _167  and  _168
REMARK   77  A    between atoms: _168  and  _169
REMARK   78  A    between atoms: _173  and  _175
REMARK   79  A    between atoms: _175  and  _176
REMARK   80  A    between atoms: _175  and  _178
REMARK   81  A    between atoms: _178  and  _179
REMARK   82  A    between atoms: _182  and  _184
REMARK   83  A    between atoms: _184  and  _185
REMARK   84  A    between atoms: _184  and  _187
REMARK   85  A    between atoms: _187  and  _188
REMARK   86  A    between atoms: _191  and  _193
REMARK   87  A    between atoms: _193  and  _194
REMARK   88  A    between atoms: _193  and  _196
REMARK   89  A    between atoms: _196  and  _197
REMARK   90  A    between atoms: _202  and  _204
REMARK   91  A    between atoms: _204  and  _205
REMARK   92  A    between atoms: _204  and  _207
REMARK   93  A    between atoms: _207  and  _208
REMARK   94  A    between atoms: _210  and  _212
REMARK   95  A    between atoms: _212  and  _213
REMARK   96  A    between atoms: _212  and  _215
REMARK   97  A    between atoms: _215  and  _216
REMARK   98  A    between atoms: _216  and  _217
REMARK   99  A    between atoms: _222  and  _224
REMARK  100  A    between atoms: _224  and  _225
REMARK  101  A    between atoms: _224  and  _227
REMARK  102  A    between atoms: _230  and  _232
REMARK  103  A    between atoms: _232  and  _233
REMARK  104  A    between atoms: _232  and  _235
REMARK  105  A    between atoms: _238  and  _240
REMARK  106  A    between atoms: _240  and  _241
REMARK  107  A    between atoms: _243  and  _245
REMARK  108  A    between atoms: _245  and  _246
REMARK  109  A    between atoms: _249  and  _251
REMARK  110  A    between atoms: _251  and  _252
REMARK  111  A    between atoms: _251  and  _254
REMARK  112  A    between atoms: _254  and  _255
REMARK  113  A    between atoms: _260  and  _262
REMARK  114  A    between atoms: _262  and  _263
REMARK  115  A    between atoms: _262  and  _265
REMARK  116  A    between atoms: _265  and  _266
REMARK  117  A    between atoms: _268  and  _270
REMARK  118  A    between atoms: _270  and  _271
REMARK  119  A    between atoms: _270  and  _273
REMARK  120  A    between atoms: _273  and  _274
REMARK  121  A    between atoms: _277  and  _279
REMARK  122  A    between atoms: _279  and  _280
REMARK  123  A    between atoms: _279  and  _282
REMARK  124  A    between atoms: _282  and  _283
REMARK  125  A    between atoms: _286  and  _287
REMARK  126  A    between atoms: _292  and  _294
REMARK  127  A    between atoms: _294  and  _295
REMARK  128  A    between atoms: _297  and  _299
REMARK  129  A    between atoms: _299  and  _300
REMARK  130  A    between atoms: _299  and  _302
REMARK  131  A    between atoms: _302  and  _303
REMARK  132  A    between atoms: _306  and  _308
REMARK  133  A    between atoms: _308  and  _309
REMARK  134  A    between atoms: _311  and  _313
REMARK  135  A    between atoms: _313  and  _314
REMARK  136  A    between atoms: _317  and  _319
REMARK  137  A    between atoms: _319  and  _320
REMARK  138  A    between atoms: _319  and  _322
REMARK  139  A    between atoms: _322  and  _323
REMARK  140  A    between atoms: _323  and  _324
REMARK  141  A    between atoms: _329  and  _331
REMARK  142  A    between atoms: _331  and  _332
REMARK  143  A    between atoms: _331  and  _334
REMARK  144  A    between atoms: _334  and  _335
REMARK  145  A    between atoms: _340  and  _342
REMARK  146  A    between atoms: _342  and  _343
REMARK  147  A    between atoms: _345  and  _347
REMARK  148  A    between atoms: _347  and  _348
REMARK  149  A    between atoms: _347  and  _350
REMARK  150  A    between atoms: _350  and  _351
REMARK  151  A    between atoms: _356  and  _358
REMARK  152  A    between atoms: _358  and  _359
REMARK  153  A    between atoms: _358  and  _361
REMARK  154  A    between atoms: _361  and  _362
REMARK  155  A    between atoms: _365  and  _367
REMARK  156  A    between atoms: _367  and  _368
REMARK  157  A    between atoms: _370  and  _372
REMARK  158  A    between atoms: _372  and  _373
REMARK  159  A    between atoms: _372  and  _375
REMARK  160  A    between atoms: _375  and  _376
REMARK  161  A    between atoms: _376  and  _377
REMARK  162  A    between atoms: _377  and  _378
REMARK  163  A    between atoms: _387  and  _389
REMARK  164  A    between atoms: _389  and  _390
REMARK  165  A    between atoms: _393  and  _395
REMARK  166  A    between atoms: _395  and  _396
REMARK  167  A    between atoms: _395  and  _398
REMARK  168  A    between atoms: _398  and  _399
REMARK  169  A    between atoms: _402  and  _404
REMARK  170  A    between atoms: _404  and  _405
REMARK  171  A    between atoms: _404  and  _407
REMARK  172  A    between atoms: _407  and  _408
REMARK  173  A    between atoms: _411  and  _413
REMARK  174  A    between atoms: _413  and  _414
REMARK  175  A    between atoms: _413  and  _416
REMARK  176  A    between atoms: _416  and  _417
REMARK  177  A    between atoms: _417  and  _418
REMARK  178  A    between atoms: _418  and  _419
REMARK  179  A    between atoms: _419  and  _420
REMARK  180  A    between atoms: _424  and  _426
REMARK  181  A    between atoms: _426  and  _427
REMARK  182  A    between atoms: _426  and  _429
REMARK  183  A    between atoms: _429  and  _430
REMARK  184  A    between atoms: _435  and  _437
REMARK  185  A    between atoms: _437  and  _438
REMARK  186  A    between atoms: _437  and  _440
REMARK  187  A    between atoms: _440  and  _441
REMARK  188  A    between atoms: _444  and  _446
REMARK  189  A    between atoms: _446  and  _447
REMARK  190  A    between atoms: _446  and  _449
REMARK  191  A    between atoms: _449  and  _450
REMARK  192  A    between atoms: _453  and  _455
REMARK  193  A    between atoms: _455  and  _456
REMARK  194  A    between atoms: _458  and  _460
REMARK  195  A    between atoms: _460  and  _461
REMARK  196  A    between atoms: _460  and  _463
REMARK  197  A    between atoms: _463  and  _464
REMARK  198  A    between atoms: _469  and  _471
REMARK  199  A    between atoms: _471  and  _472
REMARK  200  A    between atoms: _471  and  _474
REMARK  201  A    between atoms: _474  and  _475
REMARK  202  A    between atoms: _478  and  _480
REMARK  203  A    between atoms: _480  and  _481
REMARK  204  A    between atoms: _480  and  _483
REMARK  205  A    between atoms: _486  and  _488
REMARK  206  A    between atoms: _488  and  _489
REMARK  207  A    between atoms: _488  and  _491
REMARK  208  A    between atoms: _491  and  _492
REMARK  209  A    between atoms: _497  and  _499
REMARK  210  A    between atoms: _499  and  _500
REMARK  211  A    between atoms: _499  and  _502
REMARK  212  A    between atoms: _502  and  _503
REMARK  213  A    between atoms: _508  and  _509
REMARK  214  A    between atoms: _511  and  _513
REMARK  215  A    between atoms: _513  and  _514
REMARK  216  A    between atoms: _513  and  _516
REMARK  217  A    between atoms: _516  and  _517
REMARK  218  A    between atoms: _517  and  _518
REMARK                            x       y       z     vdW  Elec       q    Type
REMARK                         _______ _______ _______ _____ _____    ______ ____
ROOT
ATOM      1  C   ILE A   3      10.495 -28.074 -17.016  0.00  0.00    +0.241 C 
ATOM      2  N   GLY A   4      10.016 -28.931 -16.117  0.00  0.00    -0.295 N 
ATOM      3  H   GLY A   4       9.010 -28.879 -15.858  0.00  0.00    +0.150 HD
ATOM      4  O   ILE A   3      11.635 -28.141 -17.461  0.00  0.00    -0.273 OA
ENDROOT
BRANCH   2   5
ATOM      5  CA  GLY A   4      10.860 -29.945 -15.481  0.00  0.00    +0.176 C 
BRANCH   5   6
ATOM      6  C   GLY A   4      11.607 -30.871 -16.422  0.00  0.00    +0.243 C 
ATOM      7  O   GLY A   4      12.824 -31.000 -16.278  0.00  0.00    -0.273 OA
ATOM      8  N   ASN A   5      10.934 -31.457 -17.417  0.00  0.00    -0.297 N 
ATOM      9  H   ASN A   5       9.920 -31.258 -17.530  0.00  0.00    +0.150 HD
BRANCH   8  10
ATOM     10  CA  ASN A   5      11.594 -32.376 -18.355  0.00  0.00    +0.158 C 
BRANCH  10  11
ATOM     11  C   ASN A   5      12.757 -31.718 -19.107  0.00  0.00    +0.241 C 
ATOM     12  O   ASN A   5      13.825 -32.319 -19.318  0.00  0.00    -0.273 OA
ATOM     13  N   THR A   6      12.507 -30.494 -19.550  0.00  0.00    -0.295 N 
ATOM     14  H   THR A   6      11.559 -30.091 -19.403  0.00  0.00    +0.150 HD
BRANCH  13  15
ATOM     15  CA  THR A   6      13.510 -29.694 -20.234  0.00  0.00    +0.176 C 
BRANCH  15  16
ATOM     16  C   THR A   6      14.672 -29.258 -19.343  0.00  0.00    +0.243 C 
ATOM     17  N   VAL A   7      14.376 -28.752 -18.148  0.00  0.00    -0.298 N 
ATOM     18  H   VAL A   7      13.392 -28.766 -17.812  0.00  0.00    +0.150 HD
ATOM     19  O   THR A   6      15.831 -29.383 -19.747  0.00  0.00    -0.273 OA
BRANCH  17  20
ATOM     20  CA  VAL A   7      15.432 -28.170 -17.294  0.00  0.00    +0.137 C 
BRANCH  20  21
ATOM     21  CB  VAL A   7      14.905 -27.416 -16.052  0.00  0.00    +0.026 C 
ATOM     22  CG2 VAL A   7      14.009 -28.290 -15.187  0.00  0.00    +0.002 C 
ATOM     23  CG1 VAL A   7      14.188 -26.148 -16.453  0.00  0.00    +0.002 C 
ENDBRANCH  20  21
BRANCH  20  24
ATOM     24  C   VAL A   7      16.463 -29.191 -16.819  0.00  0.00    +0.227 C 
ATOM     25  O   VAL A   7      17.594 -28.828 -16.476  0.00  0.00    -0.286 OA
ENDBRANCH  20  24
ENDBRANCH  17  20
ENDBRANCH  15  16
BRANCH  15  26
ATOM     26  CB  THR A   6      12.839 -28.480 -20.899  0.00  0.00    +0.137 C 
ATOM     27  CG2 THR A   6      13.852 -27.597 -21.636  0.00  0.00    +0.034 C 
BRANCH  26  28
ATOM     28  OG1 THR A   6      11.894 -28.964 -21.852  0.00  0.00    -0.382 OA
ATOM     29  HG1 THR A   6      11.449 -28.197 -22.293  0.00  0.00    +0.210 HD
ENDBRANCH  26  28
ENDBRANCH  15  26
ENDBRANCH  13  15
ENDBRANCH  10  11
BRANCH  10  30
ATOM     30  CB  ASN A   5      10.608 -32.937 -19.387  0.00  0.00    +0.114 C 
BRANCH  30  31
ATOM     31  CG  ASN A   5      11.249 -33.969 -20.301  0.00  0.00    +0.222 C 
ATOM     32  ND2 ASN A   5      11.660 -35.078 -19.707  0.00  0.00    -0.329 N 
ATOM     33 HD21 ASN A   5      11.484 -35.220 -18.692  0.00  0.00    +0.145 HD
ATOM     34 HD22 ASN A   5      12.159 -35.807 -20.255  0.00  0.00    +0.145 HD
ATOM     35  OD1 ASN A   5      11.436 -33.754 -21.509  0.00  0.00    -0.275 OA
ENDBRANCH  30  31
ENDBRANCH  10  30
ENDBRANCH   8  10
ENDBRANCH   5   6
ENDBRANCH   2   5
BRANCH   1  36
ATOM     36  CA  ILE A   3       9.532 -27.003 -17.513  0.00  0.00    +0.149 C 
BRANCH  36  39
ATOM     37  C   ASP A   2      11.050 -25.115 -17.422  0.00  0.00    +0.241 C 
ATOM     38  O   ASP A   2      11.030 -25.097 -16.193  0.00  0.00    -0.273 OA
ATOM     39  N   ILE A   3      10.305 -25.950 -18.147  0.00  0.00    -0.297 N 
ATOM     40  H   ILE A   3      10.277 -25.846 -19.181  0.00  0.00    +0.150 HD
BRANCH  37  41
ATOM     41  CA  ASP A   2      11.962 -24.156 -18.186  0.00  0.00    +0.160 C 
BRANCH  41  43
ATOM     42  C   ASN A   1      13.590 -22.420 -17.680  0.00  0.00    +0.239 C 
ATOM     43  N   ASP A   2      12.817 -23.418 -17.254  0.00  0.00    -0.297 N 
ATOM     44  H   ASP A   2      12.821 -23.676 -16.247  0.00  0.00    +0.150 HD
ATOM     45  O   ASN A   1      13.774 -22.157 -18.873  0.00  0.00    -0.274 OA
BRANCH  42  46
ATOM     46  CA  ASN A   1      14.258 -21.573 -16.607  0.00  0.00    +0.154 C 
BRANCH  46  47
ATOM     47  N   ASN A   1      15.643 -21.335 -16.924  0.00  0.00    -0.238 NA
ATOM     48  H   ASN A   1      15.970 -21.447 -17.905  0.00  0.00    +0.142 HD
ENDBRANCH  46  47
BRANCH  46  49
ATOM     49  CB  ASN A   1      13.471 -20.281 -16.340  0.00  0.00    +0.111 C 
BRANCH  49  50
ATOM     50  CG  ASN A   1      13.378 -19.312 -17.535  0.00  0.00    +0.221 C 
ATOM     51  OD1 ASN A   1      12.279 -18.912 -17.890  0.00  0.00    -0.275 OA
ATOM     52  ND2 ASN A   1      14.506 -18.839 -18.068  0.00  0.00    -0.329 N 
ATOM     53 HD21 ASN A   1      15.426 -19.200 -17.744  0.00  0.00    +0.145 HD
ATOM     54 HD22 ASN A   1      14.465 -18.109 -18.808  0.00  0.00    +0.145 HD
ENDBRANCH  49  50
ENDBRANCH  46  49
ENDBRANCH  42  46
ENDBRANCH  41  43
BRANCH  41  55
ATOM     55  CB  ASP A   2      12.783 -24.914 -19.241  0.00  0.00    +0.143 C 
BRANCH  55  56
ATOM     56  CG  ASP A   2      12.118 -24.840 -20.615  0.00  0.00    +0.367 C 
ATOM     57  OD2 ASP A   2      10.935 -25.204 -20.696  0.00  0.00    -0.246 OA
ATOM     58  OD1 ASP A   2      12.722 -24.341 -21.597  0.00  0.00    -0.246 OA
ENDBRANCH  55  56
ENDBRANCH  41  55
ENDBRANCH  37  41
ENDBRANCH  36  39
BRANCH  36  59
ATOM     59  CB  ILE A   3       8.489 -27.638 -18.474  0.00  0.00    +0.027 C 
ATOM     60  CG2 ILE A   3       7.526 -26.570 -19.015  0.00  0.00    +0.002 C 
BRANCH  59  61
ATOM     61  CG1 ILE A   3       9.130 -28.521 -19.561  0.00  0.00    +0.002 C 
ATOM     62  CD1 ILE A   3       8.095 -29.264 -20.447  0.00  0.00    +0.000 C 
ENDBRANCH  59  61
ENDBRANCH  36  59
ENDBRANCH   1  36
TORSDOF 25
REMARK  Name = ../refined-set-2016/2q8z/2q8z_pocket.pdb
REMARK  218 active torsions:
REMARK  status: ('A' for Active; 'I' for Inactive)
REMARK    1  A    between atoms: _1  and  _3
REMARK    2  A    between atoms: _3  and  _4
REMARK    3  A    between atoms: _3  and  _6
REMARK    4  A    between atoms: _8  and  _10
REMARK    5  A    between atoms: _10  and  _11
REMARK    6  A    between atoms: _10  and  _13
REMARK    7  A    between atoms: _13  and  _14
REMARK    8  A    between atoms: _17  and  _19
REMARK    9  A    between atoms: _19  and  _20
REMARK   10  A    between atoms: _22  and  _24
REMARK   11  A    between atoms: _24  and  _25
REMARK   12  A    between atoms: _24  and  _27
REMARK   13  A    between atoms: _27  and  _28
REMARK   14  A    between atoms: _31  and  _33
REMARK   15  A    between atoms: _33  and  _34
REMARK   16  A    between atoms: _33  and  _36
REMARK   17  A    between atoms: _36  and  _37
REMARK   18  A    between atoms: _40  and  _42
REMARK   19  A    between atoms: _42  and  _43
REMARK   20  A    between atoms: _42  and  _45
REMARK   21  A    between atoms: _45  and  _46
REMARK   22  A    between atoms: _46  and  _47
REMARK   23  A    between atoms: _47  and  _48
REMARK   24  A    between atoms: _48  and  _49
REMARK   25  A    between atoms: _53  and  _55
REMARK   26  A    between atoms: _55  and  _56
REMARK   27  A    between atoms: _55  and  _58
REMARK   28  A    between atoms: _58  and  _59
REMARK   29  A    between atoms: _59  and  _60
REMARK   30  A    between atoms: _62  and  _64
REMARK   31  A    between atoms: _64  and  _65
REMARK   32  A    between atoms: _64  and  _67
REMARK   33  A    between atoms: _67  and  _68
REMARK   34  A    between atoms: _73  and  _75
REMARK   35  A    between atoms: _75  and  _76
REMARK   36  A    between atoms: _75  and  _78
REMARK   37  A    between atoms: _78  and  _79
REMARK   38  A    between atoms: _85  and  _87
REMARK   39  A    between atoms: _87  and  _88
REMARK   40  A    between atoms: _91  and  _93
REMARK   41  A    between atoms: _93  and  _94
REMARK   42  A    between atoms: _93  and  _96
REMARK   43  A    between atoms: _96  and  _97
REMARK   44  A    between atoms: _103  and  _105
REMARK   45  A    between atoms: _105  and  _106
REMARK   46  A    between atoms: _105  and  _108
REMARK   47  A    between atoms: _108  and  _109
REMARK   48  A    between atoms: _112  and  _114
REMARK   49  A    between atoms: _114  and  _115
REMARK   50  A    between atoms: _114  and  _117
REMARK   51  A    between atoms: _117  and  _118
REMARK   52  A    between atoms: _118  and  _119
REMARK   53  A    between atoms: _121  and  _123
REMARK   54  A    between atoms: _123  and  _124
REMARK   55  A    between atoms: _123  and  _126
REMARK   56  A    between atoms: _126  and  _127
REMARK   57  A    between atoms: _127  and  _128
REMARK   58  A    between atoms: _128  and  _129
REMARK   59  A    between atoms: _129  and  _130
REMARK   60  A    between atoms: _134  and  _136
REMARK   61  A    between atoms: _136  and  _137
REMARK   62  A    between atoms: _136  and  _139
REMARK   63  A    between atoms: _139  and  _140
REMARK   64  A    between atoms: _143  and  _145
REMARK   65  A    between atoms: _145  and  _146
REMARK   66  A    between atoms: _145  and  _148
REMARK   67  A    between atoms: _148  and  _149
REMARK   68  A    between atoms: _152  and  _154
REMARK   69  A    between atoms: _154  and  _155
REMARK   70  A    between atoms: _154  and  _157
REMARK   71  A    between atoms: _160  and  _162
REMARK   72  A    between atoms: _162  and  _163
REMARK   73  A    between atoms: _162  and  _165
REMARK   74  A    between atoms: _165  and  _166
REMARK   75  A    between atoms: _166  and  _167
REMARK   76  A    between atoms: _167  and  _168
REMARK   77  A    between atoms: _168  and  _169
REMARK   78  A    between atoms: _173  and  _175
REMARK   79  A    between atoms: _175  and  _176
REMARK   80  A    between atoms: _175  and  _178
REMARK   81  A    between atoms: _178  and  _179
REMARK   82  A    between atoms: _182  and  _184
REMARK   83  A    between atoms: _184  and  _185
REMARK   84  A    between atoms: _184  and  _187
REMARK   85  A    between atoms: _187  and  _188
REMARK   86  A    between atoms: _191  and  _193
REMARK   87  A    between atoms: _193  and  _194
REMARK   88  A    between atoms: _193  and  _196
REMARK   89  A    between atoms: _196  and  _197
REMARK   90  A    between atoms: _202  and  _204
REMARK   91  A    between atoms: _204  and  _205
REMARK   92  A    between atoms: _204  and  _207
REMARK   93  A    between atoms: _207  and  _208
REMARK   94  A    between atoms: _210  and  _212
REMARK   95  A    between atoms: _212  and  _213
REMARK   96  A    between atoms: _212  and  _215
REMARK   97  A    between atoms: _215  and  _216
REMARK   98  A    between atoms: _216  and  _217
REMARK   99  A    between atoms: _222  and  _224
REMARK  100  A    between atoms: _224  and  _225
REMARK  101  A    between atoms: _224  and  _227
REMARK  102  A    between atoms: _230  and  _232
REMARK  103  A    between atoms: _232  and  _233
REMARK  104  A    between atoms: _232  and  _235
REMARK  105  A    between atoms: _238  and  _240
REMARK  106  A    between atoms: _240  and  _241
REMARK  107  A    between atoms: _243  and  _245
REMARK  108  A    between atoms: _245  and  _246
REMARK  109  A    between atoms: _249  and  _251
REMARK  110  A    between atoms: _251  and  _252
REMARK  111  A    between atoms: _251  and  _254
REMARK  112  A    between atoms: _254  and  _255
REMARK  113  A    between atoms: _260  and  _262
REMARK  114  A    between atoms: _262  and  _263
REMARK  115  A    between atoms: _262  and  _265
REMARK  116  A    between atoms: _265  and  _266
REMARK  117  A    between atoms: _268  and  _270
REMARK  118  A    between atoms: _270  and  _271
REMARK  119  A    between atoms: _270  and  _273
REMARK  120  A    between atoms: _273  and  _274
REMARK  121  A    between atoms: _277  and  _279
REMARK  122  A    between atoms: _279  and  _280
REMARK  123  A    between atoms: _279  and  _282
REMARK  124  A    between atoms: _282  and  _283
REMARK  125  A    between atoms: _286  and  _287
REMARK  126  A    between atoms: _292  and  _294
REMARK  127  A    between atoms: _294  and  _295
REMARK  128  A    between atoms: _297  and  _299
REMARK  129  A    between atoms: _299  and  _300
REMARK  130  A    between atoms: _299  and  _302
REMARK  131  A    between atoms: _302  and  _303
REMARK  132  A    between atoms: _306  and  _308
REMARK  133  A    between atoms: _308  and  _309
REMARK  134  A    between atoms: _311  and  _313
REMARK  135  A    between atoms: _313  and  _314
REMARK  136  A    between atoms: _317  and  _319
REMARK  137  A    between atoms: _319  and  _320
REMARK  138  A    between atoms: _319  and  _322
REMARK  139  A    between atoms: _322  and  _323
REMARK  140  A    between atoms: _323  and  _324
REMARK  141  A    between atoms: _329  and  _331
REMARK  142  A    between atoms: _331  and  _332
REMARK  143  A    between atoms: _331  and  _334
REMARK  144  A    between atoms: _334  and  _335
REMARK  145  A    between atoms: _340  and  _342
REMARK  146  A    between atoms: _342  and  _343
REMARK  147  A    between atoms: _345  and  _347
REMARK  148  A    between atoms: _347  and  _348
REMARK  149  A    between atoms: _347  and  _350
REMARK  150  A    between atoms: _350  and  _351
REMARK  151  A    between atoms: _356  and  _358
REMARK  152  A    between atoms: _358  and  _359
REMARK  153  A    between atoms: _358  and  _361
REMARK  154  A    between atoms: _361  and  _362
REMARK  155  A    between atoms: _365  and  _367
REMARK  156  A    between atoms: _367  and  _368
REMARK  157  A    between atoms: _370  and  _372
REMARK  158  A    between atoms: _372  and  _373
REMARK  159  A    between atoms: _372  and  _375
REMARK  160  A    between atoms: _375  and  _376
REMARK  161  A    between atoms: _376  and  _377
REMARK  162  A    between atoms: _377  and  _378
REMARK  163  A    between atoms: _387  and  _389
REMARK  164  A    between atoms: _389  and  _390
REMARK  165  A    between atoms: _393  and  _395
REMARK  166  A    between atoms: _395  and  _396
REMARK  167  A    between atoms: _395  and  _398
REMARK  168  A    between atoms: _398  and  _399
REMARK  169  A    between atoms: _402  and  _404
REMARK  170  A    between atoms: _404  and  _405
REMARK  171  A    between atoms: _404  and  _407
REMARK  172  A    between atoms: _407  and  _408
REMARK  173  A    between atoms: _411  and  _413
REMARK  174  A    between atoms: _413  and  _414
REMARK  175  A    between atoms: _413  and  _416
REMARK  176  A    between atoms: _416  and  _417
REMARK  177  A    between atoms: _417  and  _418
REMARK  178  A    between atoms: _418  and  _419
REMARK  179  A    between atoms: _419  and  _420
REMARK  180  A    between atoms: _424  and  _426
REMARK  181  A    between atoms: _426  and  _427
REMARK  182  A    between atoms: _426  and  _429
REMARK  183  A    between atoms: _429  and  _430
REMARK  184  A    between atoms: _435  and  _437
REMARK  185  A    between atoms: _437  and  _438
REMARK  186  A    between atoms: _437  and  _440
REMARK  187  A    between atoms: _440  and  _441
REMARK  188  A    between atoms: _444  and  _446
REMARK  189  A    between atoms: _446  and  _447
REMARK  190  A    between atoms: _446  and  _449
REMARK  191  A    between atoms: _449  and  _450
REMARK  192  A    between atoms: _453  and  _455
REMARK  193  A    between atoms: _455  and  _456
REMARK  194  A    between atoms: _458  and  _460
REMARK  195  A    between atoms: _460  and  _461
REMARK  196  A    between atoms: _460  and  _463
REMARK  197  A    between atoms: _463  and  _464
REMARK  198  A    between atoms: _469  and  _471
REMARK  199  A    between atoms: _471  and  _472
REMARK  200  A    between atoms: _471  and  _474
REMARK  201  A    between atoms: _474  and  _475
REMARK  202  A    between atoms: _478  and  _480
REMARK  203  A    between atoms: _480  and  _481
REMARK  204  A    between atoms: _480  and  _483
REMARK  205  A    between atoms: _486  and  _488
REMARK  206  A    between atoms: _488  and  _489
REMARK  207  A    between atoms: _488  and  _491
REMARK  208  A    between atoms: _491  and  _492
REMARK  209  A    between atoms: _497  and  _499
REMARK  210  A    between atoms: _499  and  _500
REMARK  211  A    between atoms: _499  and  _502
REMARK  212  A    between atoms: _502  and  _503
REMARK  213  A    between atoms: _508  and  _509
REMARK  214  A    between atoms: _511  and  _513
REMARK  215  A    between atoms: _513  and  _514
REMARK  216  A    between atoms: _513  and  _516
REMARK  217  A    between atoms: _516  and  _517
REMARK  218  A    between atoms: _517  and  _518
REMARK                            x       y       z     vdW  Elec       q    Type
REMARK                         _______ _______ _______ _____ _____    ______ ____
ROOT
ATOM      1  C   ASN A   1      20.213 -29.907 -18.993  0.00  0.00    +0.239 C 
ATOM      2  N   TYR A   2      19.702 -28.797 -18.451  0.00  0.00    -0.298 N 
ATOM      3  H   TYR A   2      18.675 -28.635 -18.470  0.00  0.00    +0.150 HD
ATOM      4  O   ASN A   1      21.424 -30.050 -19.186  0.00  0.00    -0.274 OA
ENDROOT
BRANCH   1   5
ATOM      5  CA  ASN A   1      19.220 -30.975 -19.465  0.00  0.00    +0.154 C 
BRANCH   5   6
ATOM      6  N   ASN A   1      18.067 -31.080 -18.574  0.00  0.00    -0.238 NA
ATOM      7  H   ASN A   1      17.125 -30.790 -18.907  0.00  0.00    +0.142 HD
ENDBRANCH   5   6
BRANCH   5   8
ATOM      8  CB  ASN A   1      18.734 -30.610 -20.867  0.00  0.00    +0.111 C 
BRANCH   8   9
ATOM      9  CG  ASN A   1      17.990 -31.750 -21.517  0.00  0.00    +0.221 C 
ATOM     10  ND2 ASN A   1      16.670 -31.614 -21.627  0.00  0.00    -0.329 N 
ATOM     11 HD21 ASN A   1      16.212 -30.728 -21.333  0.00  0.00    +0.145 HD
ATOM     12 HD22 ASN A   1      16.097 -32.394 -22.007  0.00  0.00    +0.145 HD
ATOM     13  OD1 ASN A   1      18.584 -32.775 -21.849  0.00  0.00    -0.275 OA
ENDBRANCH   8   9
ENDBRANCH   5   8
ENDBRANCH   1   5
BRANCH   2  14
ATOM     14  CA  TYR A   2      20.584 -27.811 -17.832  0.00  0.00    +0.141 C 
BRANCH  14  15
ATOM     15  C   TYR A   2      21.237 -28.360 -16.570  0.00  0.00    +0.227 C 
ATOM     16  O   TYR A   2      22.409 -28.096 -16.336  0.00  0.00    -0.286 OA
ENDBRANCH  14  15
BRANCH  14  17
ATOM     17  CB  TYR A   2      19.824 -26.522 -17.487  0.00  0.00    +0.054 C 
BRANCH  17  18
ATOM     18  CG  TYR A   2      19.354 -25.729 -18.676  0.00  0.00    -0.020 A 
ATOM     19  CD2 TYR A   2      18.055 -25.246 -18.716  0.00  0.00    -0.001 A 
ATOM     20  CE2 TYR A   2      17.595 -24.529 -19.788  0.00  0.00    +0.036 A 
ATOM     21  CZ  TYR A   2      18.454 -24.229 -20.818  0.00  0.00    +0.134 A 
ATOM     22  CE1 TYR A   2      19.763 -24.666 -20.832  0.00  0.00    +0.036 A 
ATOM     23  CD1 TYR A   2      20.224 -25.420 -19.735  0.00  0.00    -0.001 A 
BRANCH  21  24
ATOM     24  OH  TYR A   2      17.952 -23.471 -21.837  0.00  0.00    -0.506 OA
ATOM     25  HH  TYR A   2      17.188 -23.944 -22.253  0.00  0.00    +0.292 HD
ENDBRANCH  21  24
ENDBRANCH  17  18
ENDBRANCH  14  17
ENDBRANCH   2  14
TORSDOF 9
REMARK  Name = ../refined-set-2016/2q8z/2q8z_pocket.pdb
REMARK  218 active torsions:
REMARK  status: ('A' for Active; 'I' for Inactive)
REMARK    1  A    between atoms: _1  and  _3
REMARK    2  A    between atoms: _3  and  _4
REMARK    3  A    between atoms: _3  and  _6
REMARK    4  A    between atoms: _8  and  _10
REMARK    5  A    between atoms: _10  and  _11
REMARK    6  A    between atoms: _10  and  _13
REMARK    7  A    between atoms: _13  and  _14
REMARK    8  A    between atoms: _17  and  _19
REMARK    9  A    between atoms: _19  and  _20
REMARK   10  A    between atoms: _22  and  _24
REMARK   11  A    between atoms: _24  and  _25
REMARK   12  A    between atoms: _24  and  _27
REMARK   13  A    between atoms: _27  and  _28
REMARK   14  A    between atoms: _31  and  _33
REMARK   15  A    between atoms: _33  and  _34
REMARK   16  A    between atoms: _33  and  _36
REMARK   17  A    between atoms: _36  and  _37
REMARK   18  A    between atoms: _40  and  _42
REMARK   19  A    between atoms: _42  and  _43
REMARK   20  A    between atoms: _42  and  _45
REMARK   21  A    between atoms: _45  and  _46
REMARK   22  A    between atoms: _46  and  _47
REMARK   23  A    between atoms: _47  and  _48
REMARK   24  A    between atoms: _48  and  _49
REMARK   25  A    between atoms: _53  and  _55
REMARK   26  A    between atoms: _55  and  _56
REMARK   27  A    between atoms: _55  and  _58
REMARK   28  A    between atoms: _58  and  _59
REMARK   29  A    between atoms: _59  and  _60
REMARK   30  A    between atoms: _62  and  _64
REMARK   31  A    between atoms: _64  and  _65
REMARK   32  A    between atoms: _64  and  _67
REMARK   33  A    between atoms: _67  and  _68
REMARK   34  A    between atoms: _73  and  _75
REMARK   35  A    between atoms: _75  and  _76
REMARK   36  A    between atoms: _75  and  _78
REMARK   37  A    between atoms: _78  and  _79
REMARK   38  A    between atoms: _85  and  _87
REMARK   39  A    between atoms: _87  and  _88
REMARK   40  A    between atoms: _91  and  _93
REMARK   41  A    between atoms: _93  and  _94
REMARK   42  A    between atoms: _93  and  _96
REMARK   43  A    between atoms: _96  and  _97
REMARK   44  A    between atoms: _103  and  _105
REMARK   45  A    between atoms: _105  and  _106
REMARK   46  A    between atoms: _105  and  _108
REMARK   47  A    between atoms: _108  and  _109
REMARK   48  A    between atoms: _112  and  _114
REMARK   49  A    between atoms: _114  and  _115
REMARK   50  A    between atoms: _114  and  _117
REMARK   51  A    between atoms: _117  and  _118
REMARK   52  A    between atoms: _118  and  _119
REMARK   53  A    between atoms: _121  and  _123
REMARK   54  A    between atoms: _123  and  _124
REMARK   55  A    between atoms: _123  and  _126
REMARK   56  A    between atoms: _126  and  _127
REMARK   57  A    between atoms: _127  and  _128
REMARK   58  A    between atoms: _128  and  _129
REMARK   59  A    between atoms: _129  and  _130
REMARK   60  A    between atoms: _134  and  _136
REMARK   61  A    between atoms: _136  and  _137
REMARK   62  A    between atoms: _136  and  _139
REMARK   63  A    between atoms: _139  and  _140
REMARK   64  A    between atoms: _143  and  _145
REMARK   65  A    between atoms: _145  and  _146
REMARK   66  A    between atoms: _145  and  _148
REMARK   67  A    between atoms: _148  and  _149
REMARK   68  A    between atoms: _152  and  _154
REMARK   69  A    between atoms: _154  and  _155
REMARK   70  A    between atoms: _154  and  _157
REMARK   71  A    between atoms: _160  and  _162
REMARK   72  A    between atoms: _162  and  _163
REMARK   73  A    between atoms: _162  and  _165
REMARK   74  A    between atoms: _165  and  _166
REMARK   75  A    between atoms: _166  and  _167
REMARK   76  A    between atoms: _167  and  _168
REMARK   77  A    between atoms: _168  and  _169
REMARK   78  A    between atoms: _173  and  _175
REMARK   79  A    between atoms: _175  and  _176
REMARK   80  A    between atoms: _175  and  _178
REMARK   81  A    between atoms: _178  and  _179
REMARK   82  A    between atoms: _182  and  _184
REMARK   83  A    between atoms: _184  and  _185
REMARK   84  A    between atoms: _184  and  _187
REMARK   85  A    between atoms: _187  and  _188
REMARK   86  A    between atoms: _191  and  _193
REMARK   87  A    between atoms: _193  and  _194
REMARK   88  A    between atoms: _193  and  _196
REMARK   89  A    between atoms: _196  and  _197
REMARK   90  A    between atoms: _202  and  _204
REMARK   91  A    between atoms: _204  and  _205
REMARK   92  A    between atoms: _204  and  _207
REMARK   93  A    between atoms: _207  and  _208
REMARK   94  A    between atoms: _210  and  _212
REMARK   95  A    between atoms: _212  and  _213
REMARK   96  A    between atoms: _212  and  _215
REMARK   97  A    between atoms: _215  and  _216
REMARK   98  A    between atoms: _216  and  _217
REMARK   99  A    between atoms: _222  and  _224
REMARK  100  A    between atoms: _224  and  _225
REMARK  101  A    between atoms: _224  and  _227
REMARK  102  A    between atoms: _230  and  _232
REMARK  103  A    between atoms: _232  and  _233
REMARK  104  A    between atoms: _232  and  _235
REMARK  105  A    between atoms: _238  and  _240
REMARK  106  A    between atoms: _240  and  _241
REMARK  107  A    between atoms: _243  and  _245
REMARK  108  A    between atoms: _245  and  _246
REMARK  109  A    between atoms: _249  and  _251
REMARK  110  A    between atoms: _251  and  _252
REMARK  111  A    between atoms: _251  and  _254
REMARK  112  A    between atoms: _254  and  _255
REMARK  113  A    between atoms: _260  and  _262
REMARK  114  A    between atoms: _262  and  _263
REMARK  115  A    between atoms: _262  and  _265
REMARK  116  A    between atoms: _265  and  _266
REMARK  117  A    between atoms: _268  and  _270
REMARK  118  A    between atoms: _270  and  _271
REMARK  119  A    between atoms: _270  and  _273
REMARK  120  A    between atoms: _273  and  _274
REMARK  121  A    between atoms: _277  and  _279
REMARK  122  A    between atoms: _279  and  _280
REMARK  123  A    between atoms: _279  and  _282
REMARK  124  A    between atoms: _282  and  _283
REMARK  125  A    between atoms: _286  and  _287
REMARK  126  A    between atoms: _292  and  _294
REMARK  127  A    between atoms: _294  and  _295
REMARK  128  A    between atoms: _297  and  _299
REMARK  129  A    between atoms: _299  and  _300
REMARK  130  A    between atoms: _299  and  _302
REMARK  131  A    between atoms: _302  and  _303
REMARK  132  A    between atoms: _306  and  _308
REMARK  133  A    between atoms: _308  and  _309
REMARK  134  A    between atoms: _311  and  _313
REMARK  135  A    between atoms: _313  and  _314
REMARK  136  A    between atoms: _317  and  _319
REMARK  137  A    between atoms: _319  and  _320
REMARK  138  A    between atoms: _319  and  _322
REMARK  139  A    between atoms: _322  and  _323
REMARK  140  A    between atoms: _323  and  _324
REMARK  141  A    between atoms: _329  and  _331
REMARK  142  A    between atoms: _331  and  _332
REMARK  143  A    between atoms: _331  and  _334
REMARK  144  A    between atoms: _334  and  _335
REMARK  145  A    between atoms: _340  and  _342
REMARK  146  A    between atoms: _342  and  _343
REMARK  147  A    between atoms: _345  and  _347
REMARK  148  A    between atoms: _347  and  _348
REMARK  149  A    between atoms: _347  and  _350
REMARK  150  A    between atoms: _350  and  _351
REMARK  151  A    between atoms: _356  and  _358
REMARK  152  A    between atoms: _358  and  _359
REMARK  153  A    between atoms: _358  and  _361
REMARK  154  A    between atoms: _361  and  _362
REMARK  155  A    between atoms: _365  and  _367
REMARK  156  A    between atoms: _367  and  _368
REMARK  157  A    between atoms: _370  and  _372
REMARK  158  A    between atoms: _372  and  _373
REMARK  159  A    between atoms: _372  and  _375
REMARK  160  A    between atoms: _375  and  _376
REMARK  161  A    between atoms: _376  and  _377
REMARK  162  A    between atoms: _377  and  _378
REMARK  163  A    between atoms: _387  and  _389
REMARK  164  A    between atoms: _389  and  _390
REMARK  165  A    between atoms: _393  and  _395
REMARK  166  A    between atoms: _395  and  _396
REMARK  167  A    between atoms: _395  and  _398
REMARK  168  A    between atoms: _398  and  _399
REMARK  169  A    between atoms: _402  and  _404
REMARK  170  A    between atoms: _404  and  _405
REMARK  171  A    between atoms: _404  and  _407
REMARK  172  A    between atoms: _407  and  _408
REMARK  173  A    between atoms: _411  and  _413
REMARK  174  A    between atoms: _413  and  _414
REMARK  175  A    between atoms: _413  and  _416
REMARK  176  A    between atoms: _416  and  _417
REMARK  177  A    between atoms: _417  and  _418
REMARK  178  A    between atoms: _418  and  _419
REMARK  179  A    between atoms: _419  and  _420
REMARK  180  A    between atoms: _424  and  _426
REMARK  181  A    between atoms: _426  and  _427
REMARK  182  A    between atoms: _426  and  _429
REMARK  183  A    between atoms: _429  and  _430
REMARK  184  A    between atoms: _435  and  _437
REMARK  185  A    between atoms: _437  and  _438
REMARK  186  A    between atoms: _437  and  _440
REMARK  187  A    between atoms: _440  and  _441
REMARK  188  A    between atoms: _444  and  _446
REMARK  189  A    between atoms: _446  and  _447
REMARK  190  A    between atoms: _446  and  _449
REMARK  191  A    between atoms: _449  and  _450
REMARK  192  A    between atoms: _453  and  _455
REMARK  193  A    between atoms: _455  and  _456
REMARK  194  A    between atoms: _458  and  _460
REMARK  195  A    between atoms: _460  and  _461
REMARK  196  A    between atoms: _460  and  _463
REMARK  197  A    between atoms: _463  and  _464
REMARK  198  A    between atoms: _469  and  _471
REMARK  199  A    between atoms: _471  and  _472
REMARK  200  A    between atoms: _471  and  _474
REMARK  201  A    between atoms: _474  and  _475
REMARK  202  A    between atoms: _478  and  _480
REMARK  203  A    between atoms: _480  and  _481
REMARK  204  A    between atoms: _480  and  _483
REMARK  205  A    between atoms: _486  and  _488
REMARK  206  A    between atoms: _488  and  _489
REMARK  207  A    between atoms: _488  and  _491
REMARK  208  A    between atoms: _491  and  _492
REMARK  209  A    between atoms: _497  and  _499
REMARK  210  A    between atoms: _499  and  _500
REMARK  211  A    between atoms: _499  and  _502
REMARK  212  A    between atoms: _502  and  _503
REMARK  213  A    between atoms: _508  and  _509
REMARK  214  A    between atoms: _511  and  _513
REMARK  215  A    between atoms: _513  and  _514
REMARK  216  A    between atoms: _513  and  _516
REMARK  217  A    between atoms: _516  and  _517
REMARK  218  A    between atoms: _517  and  _518
REMARK                            x       y       z     vdW  Elec       q    Type
REMARK                         _______ _______ _______ _____ _____    ______ ____
ROOT
ATOM      1  CA  MET A   1       7.680 -19.856 -14.203  0.00  0.00    +0.134 C 
ENDROOT
BRANCH   1   2
ATOM      2  N   MET A   1       8.603 -18.818 -13.753  0.00  0.00    -0.239 NA
ATOM      3  H   MET A   1       9.615 -18.877 -13.985  0.00  0.00    +0.142 HD
ENDBRANCH   1   2
BRANCH   1   4
ATOM      4  C   MET A   1       7.113 -20.649 -13.034  0.00  0.00    +0.224 C 
ATOM      5  O   MET A   1       5.979 -21.105 -13.116  0.00  0.00    -0.287 OA
ENDBRANCH   1   4
BRANCH   1   6
ATOM      6  CB  MET A   1       8.331 -20.833 -15.183  0.00  0.00    +0.037 C 
BRANCH   6   7
ATOM      7  CG  MET A   1       8.487 -20.269 -16.576  0.00  0.00    +0.059 C 
BRANCH   7   8
ATOM      8  SD  MET A   1       9.466 -21.415 -17.582  0.00  0.00    -0.139 S 
ATOM      9  CE  MET A   1       8.330 -22.801 -17.751  0.00  0.00    +0.069 C 
ENDBRANCH   7   8
ENDBRANCH   6   7
ENDBRANCH   1   6
TORSDOF 5
REMARK  Name = ../refined-set-2016/2q8z/2q8z_pocket.pdb
REMARK  218 active torsions:
REMARK  status: ('A' for Active; 'I' for Inactive)
REMARK    1  A    between atoms: _1  and  _3
REMARK    2  A    between atoms: _3  and  _4
REMARK    3  A    between atoms: _3  and  _6
REMARK    4  A    between atoms: _8  and  _10
REMARK    5  A    between atoms: _10  and  _11
REMARK    6  A    between atoms: _10  and  _13
REMARK    7  A    between atoms: _13  and  _14
REMARK    8  A    between atoms: _17  and  _19
REMARK    9  A    between atoms: _19  and  _20
REMARK   10  A    between atoms: _22  and  _24
REMARK   11  A    between atoms: _24  and  _25
REMARK   12  A    between atoms: _24  and  _27
REMARK   13  A    between atoms: _27  and  _28
REMARK   14  A    between atoms: _31  and  _33
REMARK   15  A    between atoms: _33  and  _34
REMARK   16  A    between atoms: _33  and  _36
REMARK   17  A    between atoms: _36  and  _37
REMARK   18  A    between atoms: _40  and  _42
REMARK   19  A    between atoms: _42  and  _43
REMARK   20  A    between atoms: _42  and  _45
REMARK   21  A    between atoms: _45  and  _46
REMARK   22  A    between atoms: _46  and  _47
REMARK   23  A    between atoms: _47  and  _48
REMARK   24  A    between atoms: _48  and  _49
REMARK   25  A    between atoms: _53  and  _55
REMARK   26  A    between atoms: _55  and  _56
REMARK   27  A    between atoms: _55  and  _58
REMARK   28  A    between atoms: _58  and  _59
REMARK   29  A    between atoms: _59  and  _60
REMARK   30  A    between atoms: _62  and  _64
REMARK   31  A    between atoms: _64  and  _65
REMARK   32  A    between atoms: _64  and  _67
REMARK   33  A    between atoms: _67  and  _68
REMARK   34  A    between atoms: _73  and  _75
REMARK   35  A    between atoms: _75  and  _76
REMARK   36  A    between atoms: _75  and  _78
REMARK   37  A    between atoms: _78  and  _79
REMARK   38  A    between atoms: _85  and  _87
REMARK   39  A    between atoms: _87  and  _88
REMARK   40  A    between atoms: _91  and  _93
REMARK   41  A    between atoms: _93  and  _94
REMARK   42  A    between atoms: _93  and  _96
REMARK   43  A    between atoms: _96  and  _97
REMARK   44  A    between atoms: _103  and  _105
REMARK   45  A    between atoms: _105  and  _106
REMARK   46  A    between atoms: _105  and  _108
REMARK   47  A    between atoms: _108  and  _109
REMARK   48  A    between atoms: _112  and  _114
REMARK   49  A    between atoms: _114  and  _115
REMARK   50  A    between atoms: _114  and  _117
REMARK   51  A    between atoms: _117  and  _118
REMARK   52  A    between atoms: _118  and  _119
REMARK   53  A    between atoms: _121  and  _123
REMARK   54  A    between atoms: _123  and  _124
REMARK   55  A    between atoms: _123  and  _126
REMARK   56  A    between atoms: _126  and  _127
REMARK   57  A    between atoms: _127  and  _128
REMARK   58  A    between atoms: _128  and  _129
REMARK   59  A    between atoms: _129  and  _130
REMARK   60  A    between atoms: _134  and  _136
REMARK   61  A    between atoms: _136  and  _137
REMARK   62  A    between atoms: _136  and  _139
REMARK   63  A    between atoms: _139  and  _140
REMARK   64  A    between atoms: _143  and  _145
REMARK   65  A    between atoms: _145  and  _146
REMARK   66  A    between atoms: _145  and  _148
REMARK   67  A    between atoms: _148  and  _149
REMARK   68  A    between atoms: _152  and  _154
REMARK   69  A    between atoms: _154  and  _155
REMARK   70  A    between atoms: _154  and  _157
REMARK   71  A    between atoms: _160  and  _162
REMARK   72  A    between atoms: _162  and  _163
REMARK   73  A    between atoms: _162  and  _165
REMARK   74  A    between atoms: _165  and  _166
REMARK   75  A    between atoms: _166  and  _167
REMARK   76  A    between atoms: _167  and  _168
REMARK   77  A    between atoms: _168  and  _169
REMARK   78  A    between atoms: _173  and  _175
REMARK   79  A    between atoms: _175  and  _176
REMARK   80  A    between atoms: _175  and  _178
REMARK   81  A    between atoms: _178  and  _179
REMARK   82  A    between atoms: _182  and  _184
REMARK   83  A    between atoms: _184  and  _185
REMARK   84  A    between atoms: _184  and  _187
REMARK   85  A    between atoms: _187  and  _188
REMARK   86  A    between atoms: _191  and  _193
REMARK   87  A    between atoms: _193  and  _194
REMARK   88  A    between atoms: _193  and  _196
REMARK   89  A    between atoms: _196  and  _197
REMARK   90  A    between atoms: _202  and  _204
REMARK   91  A    between atoms: _204  and  _205
REMARK   92  A    between atoms: _204  and  _207
REMARK   93  A    between atoms: _207  and  _208
REMARK   94  A    between atoms: _210  and  _212
REMARK   95  A    between atoms: _212  and  _213
REMARK   96  A    between atoms: _212  and  _215
REMARK   97  A    between atoms: _215  and  _216
REMARK   98  A    between atoms: _216  and  _217
REMARK   99  A    between atoms: _222  and  _224
REMARK  100  A    between atoms: _224  and  _225
REMARK  101  A    between atoms: _224  and  _227
REMARK  102  A    between atoms: _230  and  _232
REMARK  103  A    between atoms: _232  and  _233
REMARK  104  A    between atoms: _232  and  _235
REMARK  105  A    between atoms: _238  and  _240
REMARK  106  A    between atoms: _240  and  _241
REMARK  107  A    between atoms: _243  and  _245
REMARK  108  A    between atoms: _245  and  _246
REMARK  109  A    between atoms: _249  and  _251
REMARK  110  A    between atoms: _251  and  _252
REMARK  111  A    between atoms: _251  and  _254
REMARK  112  A    between atoms: _254  and  _255
REMARK  113  A    between atoms: _260  and  _262
REMARK  114  A    between atoms: _262  and  _263
REMARK  115  A    between atoms: _262  and  _265
REMARK  116  A    between atoms: _265  and  _266
REMARK  117  A    between atoms: _268  and  _270
REMARK  118  A    between atoms: _270  and  _271
REMARK  119  A    between atoms: _270  and  _273
REMARK  120  A    between atoms: _273  and  _274
REMARK  121  A    between atoms: _277  and  _279
REMARK  122  A    between atoms: _279  and  _280
REMARK  123  A    between atoms: _279  and  _282
REMARK  124  A    between atoms: _282  and  _283
REMARK  125  A    between atoms: _286  and  _287
REMARK  126  A    between atoms: _292  and  _294
REMARK  127  A    between atoms: _294  and  _295
REMARK  128  A    between atoms: _297  and  _299
REMARK  129  A    between atoms: _299  and  _300
REMARK  130  A    between atoms: _299  and  _302
REMARK  131  A    between atoms: _302  and  _303
REMARK  132  A    between atoms: _306  and  _308
REMARK  133  A    between atoms: _308  and  _309
REMARK  134  A    between atoms: _311  and  _313
REMARK  135  A    between atoms: _313  and  _314
REMARK  136  A    between atoms: _317  and  _319
REMARK  137  A    between atoms: _319  and  _320
REMARK  138  A    between atoms: _319  and  _322
REMARK  139  A    between atoms: _322  and  _323
REMARK  140  A    between atoms: _323  and  _324
REMARK  141  A    between atoms: _329  and  _331
REMARK  142  A    between atoms: _331  and  _332
REMARK  143  A    between atoms: _331  and  _334
REMARK  144  A    between atoms: _334  and  _335
REMARK  145  A    between atoms: _340  and  _342
REMARK  146  A    between atoms: _342  and  _343
REMARK  147  A    between atoms: _345  and  _347
REMARK  148  A    between atoms: _347  and  _348
REMARK  149  A    between atoms: _347  and  _350
REMARK  150  A    between atoms: _350  and  _351
REMARK  151  A    between atoms: _356  and  _358
REMARK  152  A    between atoms: _358  and  _359
REMARK  153  A    between atoms: _358  and  _361
REMARK  154  A    between atoms: _361  and  _362
REMARK  155  A    between atoms: _365  and  _367
REMARK  156  A    between atoms: _367  and  _368
REMARK  157  A    between atoms: _370  and  _372
REMARK  158  A    between atoms: _372  and  _373
REMARK  159  A    between atoms: _372  and  _375
REMARK  160  A    between atoms: _375  and  _376
REMARK  161  A    between atoms: _376  and  _377
REMARK  162  A    between atoms: _377  and  _378
REMARK  163  A    between atoms: _387  and  _389
REMARK  164  A    between atoms: _389  and  _390
REMARK  165  A    between atoms: _393  and  _395
REMARK  166  A    between atoms: _395  and  _396
REMARK  167  A    between atoms: _395  and  _398
REMARK  168  A    between atoms: _398  and  _399
REMARK  169  A    between atoms: _402  and  _404
REMARK  170  A    between atoms: _404  and  _405
REMARK  171  A    between atoms: _404  and  _407
REMARK  172  A    between atoms: _407  and  _408
REMARK  173  A    between atoms: _411  and  _413
REMARK  174  A    between atoms: _413  and  _414
REMARK  175  A    between atoms: _413  and  _416
REMARK  176  A    between atoms: _416  and  _417
REMARK  177  A    between atoms: _417  and  _418
REMARK  178  A    between atoms: _418  and  _419
REMARK  179  A    between atoms: _419  and  _420
REMARK  180  A    between atoms: _424  and  _426
REMARK  181  A    between atoms: _426  and  _427
REMARK  182  A    between atoms: _426  and  _429
REMARK  183  A    between atoms: _429  and  _430
REMARK  184  A    between atoms: _435  and  _437
REMARK  185  A    between atoms: _437  and  _438
REMARK  186  A    between atoms: _437  and  _440
REMARK  187  A    between atoms: _440  and  _441
REMARK  188  A    between atoms: _444  and  _446
REMARK  189  A    between atoms: _446  and  _447
REMARK  190  A    between atoms: _446  and  _449
REMARK  191  A    between atoms: _449  and  _450
REMARK  192  A    between atoms: _453  and  _455
REMARK  193  A    between atoms: _455  and  _456
REMARK  194  A    between atoms: _458  and  _460
REMARK  195  A    between atoms: _460  and  _461
REMARK  196  A    between atoms: _460  and  _463
REMARK  197  A    between atoms: _463  and  _464
REMARK  198  A    between atoms: _469  and  _471
REMARK  199  A    between atoms: _471  and  _472
REMARK  200  A    between atoms: _471  and  _474
REMARK  201  A    between atoms: _474  and  _475
REMARK  202  A    between atoms: _478  and  _480
REMARK  203  A    between atoms: _480  and  _481
REMARK  204  A    between atoms: _480  and  _483
REMARK  205  A    between atoms: _486  and  _488
REMARK  206  A    between atoms: _488  and  _489
REMARK  207  A    between atoms: _488  and  _491
REMARK  208  A    between atoms: _491  and  _492
REMARK  209  A    between atoms: _497  and  _499
REMARK  210  A    between atoms: _499  and  _500
REMARK  211  A    between atoms: _499  and  _502
REMARK  212  A    between atoms: _502  and  _503
REMARK  213  A    between atoms: _508  and  _509
REMARK  214  A    between atoms: _511  and  _513
REMARK  215  A    between atoms: _513  and  _514
REMARK  216  A    between atoms: _513  and  _516
REMARK  217  A    between atoms: _516  and  _517
REMARK  218  A    between atoms: _517  and  _518
REMARK                            x       y       z     vdW  Elec       q    Type
REMARK                         _______ _______ _______ _____ _____    ______ ____
ROOT
ATOM      1  O   HOH     1      10.741 -32.779 -30.005  0.00  0.00    +0.000 OA
ENDROOT
TORSDOF 0
REMARK  Name = ../refined-set-2016/2q8z/2q8z_pocket.pdb
REMARK  218 active torsions:
REMARK  status: ('A' for Active; 'I' for Inactive)
REMARK    1  A    between atoms: _1  and  _3
REMARK    2  A    between atoms: _3  and  _4
REMARK    3  A    between atoms: _3  and  _6
REMARK    4  A    between atoms: _8  and  _10
REMARK    5  A    between atoms: _10  and  _11
REMARK    6  A    between atoms: _10  and  _13
REMARK    7  A    between atoms: _13  and  _14
REMARK    8  A    between atoms: _17  and  _19
REMARK    9  A    between atoms: _19  and  _20
REMARK   10  A    between atoms: _22  and  _24
REMARK   11  A    between atoms: _24  and  _25
REMARK   12  A    between atoms: _24  and  _27
REMARK   13  A    between atoms: _27  and  _28
REMARK   14  A    between atoms: _31  and  _33
REMARK   15  A    between atoms: _33  and  _34
REMARK   16  A    between atoms: _33  and  _36
REMARK   17  A    between atoms: _36  and  _37
REMARK   18  A    between atoms: _40  and  _42
REMARK   19  A    between atoms: _42  and  _43
REMARK   20  A    between atoms: _42  and  _45
REMARK   21  A    between atoms: _45  and  _46
REMARK   22  A    between atoms: _46  and  _47
REMARK   23  A    between atoms: _47  and  _48
REMARK   24  A    between atoms: _48  and  _49
REMARK   25  A    between atoms: _53  and  _55
REMARK   26  A    between atoms: _55  and  _56
REMARK   27  A    between atoms: _55  and  _58
REMARK   28  A    between atoms: _58  and  _59
REMARK   29  A    between atoms: _59  and  _60
REMARK   30  A    between atoms: _62  and  _64
REMARK   31  A    between atoms: _64  and  _65
REMARK   32  A    between atoms: _64  and  _67
REMARK   33  A    between atoms: _67  and  _68
REMARK   34  A    between atoms: _73  and  _75
REMARK   35  A    between atoms: _75  and  _76
REMARK   36  A    between atoms: _75  and  _78
REMARK   37  A    between atoms: _78  and  _79
REMARK   38  A    between atoms: _85  and  _87
REMARK   39  A    between atoms: _87  and  _88
REMARK   40  A    between atoms: _91  and  _93
REMARK   41  A    between atoms: _93  and  _94
REMARK   42  A    between atoms: _93  and  _96
REMARK   43  A    between atoms: _96  and  _97
REMARK   44  A    between atoms: _103  and  _105
REMARK   45  A    between atoms: _105  and  _106
REMARK   46  A    between atoms: _105  and  _108
REMARK   47  A    between atoms: _108  and  _109
REMARK   48  A    between atoms: _112  and  _114
REMARK   49  A    between atoms: _114  and  _115
REMARK   50  A    between atoms: _114  and  _117
REMARK   51  A    between atoms: _117  and  _118
REMARK   52  A    between atoms: _118  and  _119
REMARK   53  A    between atoms: _121  and  _123
REMARK   54  A    between atoms: _123  and  _124
REMARK   55  A    between atoms: _123  and  _126
REMARK   56  A    between atoms: _126  and  _127
REMARK   57  A    between atoms: _127  and  _128
REMARK   58  A    between atoms: _128  and  _129
REMARK   59  A    between atoms: _129  and  _130
REMARK   60  A    between atoms: _134  and  _136
REMARK   61  A    between atoms: _136  and  _137
REMARK   62  A    between atoms: _136  and  _139
REMARK   63  A    between atoms: _139  and  _140
REMARK   64  A    between atoms: _143  and  _145
REMARK   65  A    between atoms: _145  and  _146
REMARK   66  A    between atoms: _145  and  _148
REMARK   67  A    between atoms: _148  and  _149
REMARK   68  A    between atoms: _152  and  _154
REMARK   69  A    between atoms: _154  and  _155
REMARK   70  A    between atoms: _154  and  _157
REMARK   71  A    between atoms: _160  and  _162
REMARK   72  A    between atoms: _162  and  _163
REMARK   73  A    between atoms: _162  and  _165
REMARK   74  A    between atoms: _165  and  _166
REMARK   75  A    between atoms: _166  and  _167
REMARK   76  A    between atoms: _167  and  _168
REMARK   77  A    between atoms: _168  and  _169
REMARK   78  A    between atoms: _173  and  _175
REMARK   79  A    between atoms: _175  and  _176
REMARK   80  A    between atoms: _175  and  _178
REMARK   81  A    between atoms: _178  and  _179
REMARK   82  A    between atoms: _182  and  _184
REMARK   83  A    between atoms: _184  and  _185
REMARK   84  A    between atoms: _184  and  _187
REMARK   85  A    between atoms: _187  and  _188
REMARK   86  A    between atoms: _191  and  _193
REMARK   87  A    between atoms: _193  and  _194
REMARK   88  A    between atoms: _193  and  _196
REMARK   89  A    between atoms: _196  and  _197
REMARK   90  A    between atoms: _202  and  _204
REMARK   91  A    between atoms: _204  and  _205
REMARK   92  A    between atoms: _204  and  _207
REMARK   93  A    between atoms: _207  and  _208
REMARK   94  A    between atoms: _210  and  _212
REMARK   95  A    between atoms: _212  and  _213
REMARK   96  A    between atoms: _212  and  _215
REMARK   97  A    between atoms: _215  and  _216
REMARK   98  A    between atoms: _216  and  _217
REMARK   99  A    between atoms: _222  and  _224
REMARK  100  A    between atoms: _224  and  _225
REMARK  101  A    between atoms: _224  and  _227
REMARK  102  A    between atoms: _230  and  _232
REMARK  103  A    between atoms: _232  and  _233
REMARK  104  A    between atoms: _232  and  _235
REMARK  105  A    between atoms: _238  and  _240
REMARK  106  A    between atoms: _240  and  _241
REMARK  107  A    between atoms: _243  and  _245
REMARK  108  A    between atoms: _245  and  _246
REMARK  109  A    between atoms: _249  and  _251
REMARK  110  A    between atoms: _251  and  _252
REMARK  111  A    between atoms: _251  and  _254
REMARK  112  A    between atoms: _254  and  _255
REMARK  113  A    between atoms: _260  and  _262
REMARK  114  A    between atoms: _262  and  _263
REMARK  115  A    between atoms: _262  and  _265
REMARK  116  A    between atoms: _265  and  _266
REMARK  117  A    between atoms: _268  and  _270
REMARK  118  A    between atoms: _270  and  _271
REMARK  119  A    between atoms: _270  and  _273
REMARK  120  A    between atoms: _273  and  _274
REMARK  121  A    between atoms: _277  and  _279
REMARK  122  A    between atoms: _279  and  _280
REMARK  123  A    between atoms: _279  and  _282
REMARK  124  A    between atoms: _282  and  _283
REMARK  125  A    between atoms: _286  and  _287
REMARK  126  A    between atoms: _292  and  _294
REMARK  127  A    between atoms: _294  and  _295
REMARK  128  A    between atoms: _297  and  _299
REMARK  129  A    between atoms: _299  and  _300
REMARK  130  A    between atoms: _299  and  _302
REMARK  131  A    between atoms: _302  and  _303
REMARK  132  A    between atoms: _306  and  _308
REMARK  133  A    between atoms: _308  and  _309
REMARK  134  A    between atoms: _311  and  _313
REMARK  135  A    between atoms: _313  and  _314
REMARK  136  A    between atoms: _317  and  _319
REMARK  137  A    between atoms: _319  and  _320
REMARK  138  A    between atoms: _319  and  _322
REMARK  139  A    between atoms: _322  and  _323
REMARK  140  A    between atoms: _323  and  _324
REMARK  141  A    between atoms: _329  and  _331
REMARK  142  A    between atoms: _331  and  _332
REMARK  143  A    between atoms: _331  and  _334
REMARK  144  A    between atoms: _334  and  _335
REMARK  145  A    between atoms: _340  and  _342
REMARK  146  A    between atoms: _342  and  _343
REMARK  147  A    between atoms: _345  and  _347
REMARK  148  A    between atoms: _347  and  _348
REMARK  149  A    between atoms: _347  and  _350
REMARK  150  A    between atoms: _350  and  _351
REMARK  151  A    between atoms: _356  and  _358
REMARK  152  A    between atoms: _358  and  _359
REMARK  153  A    between atoms: _358  and  _361
REMARK  154  A    between atoms: _361  and  _362
REMARK  155  A    between atoms: _365  and  _367
REMARK  156  A    between atoms: _367  and  _368
REMARK  157  A    between atoms: _370  and  _372
REMARK  158  A    between atoms: _372  and  _373
REMARK  159  A    between atoms: _372  and  _375
REMARK  160  A    between atoms: _375  and  _376
REMARK  161  A    between atoms: _376  and  _377
REMARK  162  A    between atoms: _377  and  _378
REMARK  163  A    between atoms: _387  and  _389
REMARK  164  A    between atoms: _389  and  _390
REMARK  165  A    between atoms: _393  and  _395
REMARK  166  A    between atoms: _395  and  _396
REMARK  167  A    between atoms: _395  and  _398
REMARK  168  A    between atoms: _398  and  _399
REMARK  169  A    between atoms: _402  and  _404
REMARK  170  A    between atoms: _404  and  _405
REMARK  171  A    between atoms: _404  and  _407
REMARK  172  A    between atoms: _407  and  _408
REMARK  173  A    between atoms: _411  and  _413
REMARK  174  A    between atoms: _413  and  _414
REMARK  175  A    between atoms: _413  and  _416
REMARK  176  A    between atoms: _416  and  _417
REMARK  177  A    between atoms: _417  and  _418
REMARK  178  A    between atoms: _418  and  _419
REMARK  179  A    between atoms: _419  and  _420
REMARK  180  A    between atoms: _424  and  _426
REMARK  181  A    between atoms: _426  and  _427
REMARK  182  A    between atoms: _426  and  _429
REMARK  183  A    between atoms: _429  and  _430
REMARK  184  A    between atoms: _435  and  _437
REMARK  185  A    between atoms: _437  and  _438
REMARK  186  A    between atoms: _437  and  _440
REMARK  187  A    between atoms: _440  and  _441
REMARK  188  A    between atoms: _444  and  _446
REMARK  189  A    between atoms: _446  and  _447
REMARK  190  A    between atoms: _446  and  _449
REMARK  191  A    between atoms: _449  and  _450
REMARK  192  A    between atoms: _453  and  _455
REMARK  193  A    between atoms: _455  and  _456
REMARK  194  A    between atoms: _458  and  _460
REMARK  195  A    between atoms: _460  and  _461
REMARK  196  A    between atoms: _460  and  _463
REMARK  197  A    between atoms: _463  and  _464
REMARK  198  A    between atoms: _469  and  _471
REMARK  199  A    between atoms: _471  and  _472
REMARK  200  A    between atoms: _471  and  _474
REMARK  201  A    between atoms: _474  and  _475
REMARK  202  A    between atoms: _478  and  _480
REMARK  203  A    between atoms: _480  and  _481
REMARK  204  A    between atoms: _480  and  _483
REMARK  205  A    between atoms: _486  and  _488
REMARK  206  A    between atoms: _488  and  _489
REMARK  207  A    between atoms: _488  and  _491
REMARK  208  A    between atoms: _491  and  _492
REMARK  209  A    between atoms: _497  and  _499
REMARK  210  A    between atoms: _499  and  _500
REMARK  211  A    between atoms: _499  and  _502
REMARK  212  A    between atoms: _502  and  _503
REMARK  213  A    between atoms: _508  and  _509
REMARK  214  A    between atoms: _511  and  _513
REMARK  215  A    between atoms: _513  and  _514
REMARK  216  A    between atoms: _513  and  _516
REMARK  217  A    between atoms: _516  and  _517
REMARK  218  A    between atoms: _517  and  _518
REMARK                            x       y       z     vdW  Elec       q    Type
REMARK                         _______ _______ _______ _____ _____    ______ ____
ROOT
ATOM      1  O   HOH     1       8.820 -29.153 -28.468  0.00  0.00    +0.000 OA
ENDROOT
TORSDOF 0
REMARK  Name = ../refined-set-2016/2q8z/2q8z_pocket.pdb
REMARK  218 active torsions:
REMARK  status: ('A' for Active; 'I' for Inactive)
REMARK    1  A    between atoms: _1  and  _3
REMARK    2  A    between atoms: _3  and  _4
REMARK    3  A    between atoms: _3  and  _6
REMARK    4  A    between atoms: _8  and  _10
REMARK    5  A    between atoms: _10  and  _11
REMARK    6  A    between atoms: _10  and  _13
REMARK    7  A    between atoms: _13  and  _14
REMARK    8  A    between atoms: _17  and  _19
REMARK    9  A    between atoms: _19  and  _20
REMARK   10  A    between atoms: _22  and  _24
REMARK   11  A    between atoms: _24  and  _25
REMARK   12  A    between atoms: _24  and  _27
REMARK   13  A    between atoms: _27  and  _28
REMARK   14  A    between atoms: _31  and  _33
REMARK   15  A    between atoms: _33  and  _34
REMARK   16  A    between atoms: _33  and  _36
REMARK   17  A    between atoms: _36  and  _37
REMARK   18  A    between atoms: _40  and  _42
REMARK   19  A    between atoms: _42  and  _43
REMARK   20  A    between atoms: _42  and  _45
REMARK   21  A    between atoms: _45  and  _46
REMARK   22  A    between atoms: _46  and  _47
REMARK   23  A    between atoms: _47  and  _48
REMARK   24  A    between atoms: _48  and  _49
REMARK   25  A    between atoms: _53  and  _55
REMARK   26  A    between atoms: _55  and  _56
REMARK   27  A    between atoms: _55  and  _58
REMARK   28  A    between atoms: _58  and  _59
REMARK   29  A    between atoms: _59  and  _60
REMARK   30  A    between atoms: _62  and  _64
REMARK   31  A    between atoms: _64  and  _65
REMARK   32  A    between atoms: _64  and  _67
REMARK   33  A    between atoms: _67  and  _68
REMARK   34  A    between atoms: _73  and  _75
REMARK   35  A    between atoms: _75  and  _76
REMARK   36  A    between atoms: _75  and  _78
REMARK   37  A    between atoms: _78  and  _79
REMARK   38  A    between atoms: _85  and  _87
REMARK   39  A    between atoms: _87  and  _88
REMARK   40  A    between atoms: _91  and  _93
REMARK   41  A    between atoms: _93  and  _94
REMARK   42  A    between atoms: _93  and  _96
REMARK   43  A    between atoms: _96  and  _97
REMARK   44  A    between atoms: _103  and  _105
REMARK   45  A    between atoms: _105  and  _106
REMARK   46  A    between atoms: _105  and  _108
REMARK   47  A    between atoms: _108  and  _109
REMARK   48  A    between atoms: _112  and  _114
REMARK   49  A    between atoms: _114  and  _115
REMARK   50  A    between atoms: _114  and  _117
REMARK   51  A    between atoms: _117  and  _118
REMARK   52  A    between atoms: _118  and  _119
REMARK   53  A    between atoms: _121  and  _123
REMARK   54  A    between atoms: _123  and  _124
REMARK   55  A    between atoms: _123  and  _126
REMARK   56  A    between atoms: _126  and  _127
REMARK   57  A    between atoms: _127  and  _128
REMARK   58  A    between atoms: _128  and  _129
REMARK   59  A    between atoms: _129  and  _130
REMARK   60  A    between atoms: _134  and  _136
REMARK   61  A    between atoms: _136  and  _137
REMARK   62  A    between atoms: _136  and  _139
REMARK   63  A    between atoms: _139  and  _140
REMARK   64  A    between atoms: _143  and  _145
REMARK   65  A    between atoms: _145  and  _146
REMARK   66  A    between atoms: _145  and  _148
REMARK   67  A    between atoms: _148  and  _149
REMARK   68  A    between atoms: _152  and  _154
REMARK   69  A    between atoms: _154  and  _155
REMARK   70  A    between atoms: _154  and  _157
REMARK   71  A    between atoms: _160  and  _162
REMARK   72  A    between atoms: _162  and  _163
REMARK   73  A    between atoms: _162  and  _165
REMARK   74  A    between atoms: _165  and  _166
REMARK   75  A    between atoms: _166  and  _167
REMARK   76  A    between atoms: _167  and  _168
REMARK   77  A    between atoms: _168  and  _169
REMARK   78  A    between atoms: _173  and  _175
REMARK   79  A    between atoms: _175  and  _176
REMARK   80  A    between atoms: _175  and  _178
REMARK   81  A    between atoms: _178  and  _179
REMARK   82  A    between atoms: _182  and  _184
REMARK   83  A    between atoms: _184  and  _185
REMARK   84  A    between atoms: _184  and  _187
REMARK   85  A    between atoms: _187  and  _188
REMARK   86  A    between atoms: _191  and  _193
REMARK   87  A    between atoms: _193  and  _194
REMARK   88  A    between atoms: _193  and  _196
REMARK   89  A    between atoms: _196  and  _197
REMARK   90  A    between atoms: _202  and  _204
REMARK   91  A    between atoms: _204  and  _205
REMARK   92  A    between atoms: _204  and  _207
REMARK   93  A    between atoms: _207  and  _208
REMARK   94  A    between atoms: _210  and  _212
REMARK   95  A    between atoms: _212  and  _213
REMARK   96  A    between atoms: _212  and  _215
REMARK   97  A    between atoms: _215  and  _216
REMARK   98  A    between atoms: _216  and  _217
REMARK   99  A    between atoms: _222  and  _224
REMARK  100  A    between atoms: _224  and  _225
REMARK  101  A    between atoms: _224  and  _227
REMARK  102  A    between atoms: _230  and  _232
REMARK  103  A    between atoms: _232  and  _233
REMARK  104  A    between atoms: _232  and  _235
REMARK  105  A    between atoms: _238  and  _240
REMARK  106  A    between atoms: _240  and  _241
REMARK  107  A    between atoms: _243  and  _245
REMARK  108  A    between atoms: _245  and  _246
REMARK  109  A    between atoms: _249  and  _251
REMARK  110  A    between atoms: _251  and  _252
REMARK  111  A    between atoms: _251  and  _254
REMARK  112  A    between atoms: _254  and  _255
REMARK  113  A    between atoms: _260  and  _262
REMARK  114  A    between atoms: _262  and  _263
REMARK  115  A    between atoms: _262  and  _265
REMARK  116  A    between atoms: _265  and  _266
REMARK  117  A    between atoms: _268  and  _270
REMARK  118  A    between atoms: _270  and  _271
REMARK  119  A    between atoms: _270  and  _273
REMARK  120  A    between atoms: _273  and  _274
REMARK  121  A    between atoms: _277  and  _279
REMARK  122  A    between atoms: _279  and  _280
REMARK  123  A    between atoms: _279  and  _282
REMARK  124  A    between atoms: _282  and  _283
REMARK  125  A    between atoms: _286  and  _287
REMARK  126  A    between atoms: _292  and  _294
REMARK  127  A    between atoms: _294  and  _295
REMARK  128  A    between atoms: _297  and  _299
REMARK  129  A    between atoms: _299  and  _300
REMARK  130  A    between atoms: _299  and  _302
REMARK  131  A    between atoms: _302  and  _303
REMARK  132  A    between atoms: _306  and  _308
REMARK  133  A    between atoms: _308  and  _309
REMARK  134  A    between atoms: _311  and  _313
REMARK  135  A    between atoms: _313  and  _314
REMARK  136  A    between atoms: _317  and  _319
REMARK  137  A    between atoms: _319  and  _320
REMARK  138  A    between atoms: _319  and  _322
REMARK  139  A    between atoms: _322  and  _323
REMARK  140  A    between atoms: _323  and  _324
REMARK  141  A    between atoms: _329  and  _331
REMARK  142  A    between atoms: _331  and  _332
REMARK  143  A    between atoms: _331  and  _334
REMARK  144  A    between atoms: _334  and  _335
REMARK  145  A    between atoms: _340  and  _342
REMARK  146  A    between atoms: _342  and  _343
REMARK  147  A    between atoms: _345  and  _347
REMARK  148  A    between atoms: _347  and  _348
REMARK  149  A    between atoms: _347  and  _350
REMARK  150  A    between atoms: _350  and  _351
REMARK  151  A    between atoms: _356  and  _358
REMARK  152  A    between atoms: _358  and  _359
REMARK  153  A    between atoms: _358  and  _361
REMARK  154  A    between atoms: _361  and  _362
REMARK  155  A    between atoms: _365  and  _367
REMARK  156  A    between atoms: _367  and  _368
REMARK  157  A    between atoms: _370  and  _372
REMARK  158  A    between atoms: _372  and  _373
REMARK  159  A    between atoms: _372  and  _375
REMARK  160  A    between atoms: _375  and  _376
REMARK  161  A    between atoms: _376  and  _377
REMARK  162  A    between atoms: _377  and  _378
REMARK  163  A    between atoms: _387  and  _389
REMARK  164  A    between atoms: _389  and  _390
REMARK  165  A    between atoms: _393  and  _395
REMARK  166  A    between atoms: _395  and  _396
REMARK  167  A    between atoms: _395  and  _398
REMARK  168  A    between atoms: _398  and  _399
REMARK  169  A    between atoms: _402  and  _404
REMARK  170  A    between atoms: _404  and  _405
REMARK  171  A    between atoms: _404  and  _407
REMARK  172  A    between atoms: _407  and  _408
REMARK  173  A    between atoms: _411  and  _413
REMARK  174  A    between atoms: _413  and  _414
REMARK  175  A    between atoms: _413  and  _416
REMARK  176  A    between atoms: _416  and  _417
REMARK  177  A    between atoms: _417  and  _418
REMARK  178  A    between atoms: _418  and  _419
REMARK  179  A    between atoms: _419  and  _420
REMARK  180  A    between atoms: _424  and  _426
REMARK  181  A    between atoms: _426  and  _427
REMARK  182  A    between atoms: _426  and  _429
REMARK  183  A    between atoms: _429  and  _430
REMARK  184  A    between atoms: _435  and  _437
REMARK  185  A    between atoms: _437  and  _438
REMARK  186  A    between atoms: _437  and  _440
REMARK  187  A    between atoms: _440  and  _441
REMARK  188  A    between atoms: _444  and  _446
REMARK  189  A    between atoms: _446  and  _447
REMARK  190  A    between atoms: _446  and  _449
REMARK  191  A    between atoms: _449  and  _450
REMARK  192  A    between atoms: _453  and  _455
REMARK  193  A    between atoms: _455  and  _456
REMARK  194  A    between atoms: _458  and  _460
REMARK  195  A    between atoms: _460  and  _461
REMARK  196  A    between atoms: _460  and  _463
REMARK  197  A    between atoms: _463  and  _464
REMARK  198  A    between atoms: _469  and  _471
REMARK  199  A    between atoms: _471  and  _472
REMARK  200  A    between atoms: _471  and  _474
REMARK  201  A    between atoms: _474  and  _475
REMARK  202  A    between atoms: _478  and  _480
REMARK  203  A    between atoms: _480  and  _481
REMARK  204  A    between atoms: _480  and  _483
REMARK  205  A    between atoms: _486  and  _488
REMARK  206  A    between atoms: _488  and  _489
REMARK  207  A    between atoms: _488  and  _491
REMARK  208  A    between atoms: _491  and  _492
REMARK  209  A    between atoms: _497  and  _499
REMARK  210  A    between atoms: _499  and  _500
REMARK  211  A    between atoms: _499  and  _502
REMARK  212  A    between atoms: _502  and  _503
REMARK  213  A    between atoms: _508  and  _509
REMARK  214  A    between atoms: _511  and  _513
REMARK  215  A    between atoms: _513  and  _514
REMARK  216  A    between atoms: _513  and  _516
REMARK  217  A    between atoms: _516  and  _517
REMARK  218  A    between atoms: _517  and  _518
REMARK                            x       y       z     vdW  Elec       q    Type
REMARK                         _______ _______ _______ _____ _____    ______ ____
ROOT
ATOM      1  O   HOH     1      12.081 -34.051 -25.917  0.00  0.00    +0.000 OA
ENDROOT
TORSDOF 0
REMARK  Name = ../refined-set-2016/2q8z/2q8z_pocket.pdb
REMARK  218 active torsions:
REMARK  status: ('A' for Active; 'I' for Inactive)
REMARK    1  A    between atoms: _1  and  _3
REMARK    2  A    between atoms: _3  and  _4
REMARK    3  A    between atoms: _3  and  _6
REMARK    4  A    between atoms: _8  and  _10
REMARK    5  A    between atoms: _10  and  _11
REMARK    6  A    between atoms: _10  and  _13
REMARK    7  A    between atoms: _13  and  _14
REMARK    8  A    between atoms: _17  and  _19
REMARK    9  A    between atoms: _19  and  _20
REMARK   10  A    between atoms: _22  and  _24
REMARK   11  A    between atoms: _24  and  _25
REMARK   12  A    between atoms: _24  and  _27
REMARK   13  A    between atoms: _27  and  _28
REMARK   14  A    between atoms: _31  and  _33
REMARK   15  A    between atoms: _33  and  _34
REMARK   16  A    between atoms: _33  and  _36
REMARK   17  A    between atoms: _36  and  _37
REMARK   18  A    between atoms: _40  and  _42
REMARK   19  A    between atoms: _42  and  _43
REMARK   20  A    between atoms: _42  and  _45
REMARK   21  A    between atoms: _45  and  _46
REMARK   22  A    between atoms: _46  and  _47
REMARK   23  A    between atoms: _47  and  _48
REMARK   24  A    between atoms: _48  and  _49
REMARK   25  A    between atoms: _53  and  _55
REMARK   26  A    between atoms: _55  and  _56
REMARK   27  A    between atoms: _55  and  _58
REMARK   28  A    between atoms: _58  and  _59
REMARK   29  A    between atoms: _59  and  _60
REMARK   30  A    between atoms: _62  and  _64
REMARK   31  A    between atoms: _64  and  _65
REMARK   32  A    between atoms: _64  and  _67
REMARK   33  A    between atoms: _67  and  _68
REMARK   34  A    between atoms: _73  and  _75
REMARK   35  A    between atoms: _75  and  _76
REMARK   36  A    between atoms: _75  and  _78
REMARK   37  A    between atoms: _78  and  _79
REMARK   38  A    between atoms: _85  and  _87
REMARK   39  A    between atoms: _87  and  _88
REMARK   40  A    between atoms: _91  and  _93
REMARK   41  A    between atoms: _93  and  _94
REMARK   42  A    between atoms: _93  and  _96
REMARK   43  A    between atoms: _96  and  _97
REMARK   44  A    between atoms: _103  and  _105
REMARK   45  A    between atoms: _105  and  _106
REMARK   46  A    between atoms: _105  and  _108
REMARK   47  A    between atoms: _108  and  _109
REMARK   48  A    between atoms: _112  and  _114
REMARK   49  A    between atoms: _114  and  _115
REMARK   50  A    between atoms: _114  and  _117
REMARK   51  A    between atoms: _117  and  _118
REMARK   52  A    between atoms: _118  and  _119
REMARK   53  A    between atoms: _121  and  _123
REMARK   54  A    between atoms: _123  and  _124
REMARK   55  A    between atoms: _123  and  _126
REMARK   56  A    between atoms: _126  and  _127
REMARK   57  A    between atoms: _127  and  _128
REMARK   58  A    between atoms: _128  and  _129
REMARK   59  A    between atoms: _129  and  _130
REMARK   60  A    between atoms: _134  and  _136
REMARK   61  A    between atoms: _136  and  _137
REMARK   62  A    between atoms: _136  and  _139
REMARK   63  A    between atoms: _139  and  _140
REMARK   64  A    between atoms: _143  and  _145
REMARK   65  A    between atoms: _145  and  _146
REMARK   66  A    between atoms: _145  and  _148
REMARK   67  A    between atoms: _148  and  _149
REMARK   68  A    between atoms: _152  and  _154
REMARK   69  A    between atoms: _154  and  _155
REMARK   70  A    between atoms: _154  and  _157
REMARK   71  A    between atoms: _160  and  _162
REMARK   72  A    between atoms: _162  and  _163
REMARK   73  A    between atoms: _162  and  _165
REMARK   74  A    between atoms: _165  and  _166
REMARK   75  A    between atoms: _166  and  _167
REMARK   76  A    between atoms: _167  and  _168
REMARK   77  A    between atoms: _168  and  _169
REMARK   78  A    between atoms: _173  and  _175
REMARK   79  A    between atoms: _175  and  _176
REMARK   80  A    between atoms: _175  and  _178
REMARK   81  A    between atoms: _178  and  _179
REMARK   82  A    between atoms: _182  and  _184
REMARK   83  A    between atoms: _184  and  _185
REMARK   84  A    between atoms: _184  and  _187
REMARK   85  A    between atoms: _187  and  _188
REMARK   86  A    between atoms: _191  and  _193
REMARK   87  A    between atoms: _193  and  _194
REMARK   88  A    between atoms: _193  and  _196
REMARK   89  A    between atoms: _196  and  _197
REMARK   90  A    between atoms: _202  and  _204
REMARK   91  A    between atoms: _204  and  _205
REMARK   92  A    between atoms: _204  and  _207
REMARK   93  A    between atoms: _207  and  _208
REMARK   94  A    between atoms: _210  and  _212
REMARK   95  A    between atoms: _212  and  _213
REMARK   96  A    between atoms: _212  and  _215
REMARK   97  A    between atoms: _215  and  _216
REMARK   98  A    between atoms: _216  and  _217
REMARK   99  A    between atoms: _222  and  _224
REMARK  100  A    between atoms: _224  and  _225
REMARK  101  A    between atoms: _224  and  _227
REMARK  102  A    between atoms: _230  and  _232
REMARK  103  A    between atoms: _232  and  _233
REMARK  104  A    between atoms: _232  and  _235
REMARK  105  A    between atoms: _238  and  _240
REMARK  106  A    between atoms: _240  and  _241
REMARK  107  A    between atoms: _243  and  _245
REMARK  108  A    between atoms: _245  and  _246
REMARK  109  A    between atoms: _249  and  _251
REMARK  110  A    between atoms: _251  and  _252
REMARK  111  A    between atoms: _251  and  _254
REMARK  112  A    between atoms: _254  and  _255
REMARK  113  A    between atoms: _260  and  _262
REMARK  114  A    between atoms: _262  and  _263
REMARK  115  A    between atoms: _262  and  _265
REMARK  116  A    between atoms: _265  and  _266
REMARK  117  A    between atoms: _268  and  _270
REMARK  118  A    between atoms: _270  and  _271
REMARK  119  A    between atoms: _270  and  _273
REMARK  120  A    between atoms: _273  and  _274
REMARK  121  A    between atoms: _277  and  _279
REMARK  122  A    between atoms: _279  and  _280
REMARK  123  A    between atoms: _279  and  _282
REMARK  124  A    between atoms: _282  and  _283
REMARK  125  A    between atoms: _286  and  _287
REMARK  126  A    between atoms: _292  and  _294
REMARK  127  A    between atoms: _294  and  _295
REMARK  128  A    between atoms: _297  and  _299
REMARK  129  A    between atoms: _299  and  _300
REMARK  130  A    between atoms: _299  and  _302
REMARK  131  A    between atoms: _302  and  _303
REMARK  132  A    between atoms: _306  and  _308
REMARK  133  A    between atoms: _308  and  _309
REMARK  134  A    between atoms: _311  and  _313
REMARK  135  A    between atoms: _313  and  _314
REMARK  136  A    between atoms: _317  and  _319
REMARK  137  A    between atoms: _319  and  _320
REMARK  138  A    between atoms: _319  and  _322
REMARK  139  A    between atoms: _322  and  _323
REMARK  140  A    between atoms: _323  and  _324
REMARK  141  A    between atoms: _329  and  _331
REMARK  142  A    between atoms: _331  and  _332
REMARK  143  A    between atoms: _331  and  _334
REMARK  144  A    between atoms: _334  and  _335
REMARK  145  A    between atoms: _340  and  _342
REMARK  146  A    between atoms: _342  and  _343
REMARK  147  A    between atoms: _345  and  _347
REMARK  148  A    between atoms: _347  and  _348
REMARK  149  A    between atoms: _347  and  _350
REMARK  150  A    between atoms: _350  and  _351
REMARK  151  A    between atoms: _356  and  _358
REMARK  152  A    between atoms: _358  and  _359
REMARK  153  A    between atoms: _358  and  _361
REMARK  154  A    between atoms: _361  and  _362
REMARK  155  A    between atoms: _365  and  _367
REMARK  156  A    between atoms: _367  and  _368
REMARK  157  A    between atoms: _370  and  _372
REMARK  158  A    between atoms: _372  and  _373
REMARK  159  A    between atoms: _372  and  _375
REMARK  160  A    between atoms: _375  and  _376
REMARK  161  A    between atoms: _376  and  _377
REMARK  162  A    between atoms: _377  and  _378
REMARK  163  A    between atoms: _387  and  _389
REMARK  164  A    between atoms: _389  and  _390
REMARK  165  A    between atoms: _393  and  _395
REMARK  166  A    between atoms: _395  and  _396
REMARK  167  A    between atoms: _395  and  _398
REMARK  168  A    between atoms: _398  and  _399
REMARK  169  A    between atoms: _402  and  _404
REMARK  170  A    between atoms: _404  and  _405
REMARK  171  A    between atoms: _404  and  _407
REMARK  172  A    between atoms: _407  and  _408
REMARK  173  A    between atoms: _411  and  _413
REMARK  174  A    between atoms: _413  and  _414
REMARK  175  A    between atoms: _413  and  _416
REMARK  176  A    between atoms: _416  and  _417
REMARK  177  A    between atoms: _417  and  _418
REMARK  178  A    between atoms: _418  and  _419
REMARK  179  A    between atoms: _419  and  _420
REMARK  180  A    between atoms: _424  and  _426
REMARK  181  A    between atoms: _426  and  _427
REMARK  182  A    between atoms: _426  and  _429
REMARK  183  A    between atoms: _429  and  _430
REMARK  184  A    between atoms: _435  and  _437
REMARK  185  A    between atoms: _437  and  _438
REMARK  186  A    between atoms: _437  and  _440
REMARK  187  A    between atoms: _440  and  _441
REMARK  188  A    between atoms: _444  and  _446
REMARK  189  A    between atoms: _446  and  _447
REMARK  190  A    between atoms: _446  and  _449
REMARK  191  A    between atoms: _449  and  _450
REMARK  192  A    between atoms: _453  and  _455
REMARK  193  A    between atoms: _455  and  _456
REMARK  194  A    between atoms: _458  and  _460
REMARK  195  A    between atoms: _460  and  _461
REMARK  196  A    between atoms: _460  and  _463
REMARK  197  A    between atoms: _463  and  _464
REMARK  198  A    between atoms: _469  and  _471
REMARK  199  A    between atoms: _471  and  _472
REMARK  200  A    between atoms: _471  and  _474
REMARK  201  A    between atoms: _474  and  _475
REMARK  202  A    between atoms: _478  and  _480
REMARK  203  A    between atoms: _480  and  _481
REMARK  204  A    between atoms: _480  and  _483
REMARK  205  A    between atoms: _486  and  _488
REMARK  206  A    between atoms: _488  and  _489
REMARK  207  A    between atoms: _488  and  _491
REMARK  208  A    between atoms: _491  and  _492
REMARK  209  A    between atoms: _497  and  _499
REMARK  210  A    between atoms: _499  and  _500
REMARK  211  A    between atoms: _499  and  _502
REMARK  212  A    between atoms: _502  and  _503
REMARK  213  A    between atoms: _508  and  _509
REMARK  214  A    between atoms: _511  and  _513
REMARK  215  A    between atoms: _513  and  _514
REMARK  216  A    between atoms: _513  and  _516
REMARK  217  A    between atoms: _516  and  _517
REMARK  218  A    between atoms: _517  and  _518
REMARK                            x       y       z     vdW  Elec       q    Type
REMARK                         _______ _______ _______ _____ _____    ______ ____
ROOT
ATOM      1  O   HOH     1      10.877 -27.080 -28.916  0.00  0.00    +0.000 OA
ENDROOT
TORSDOF 0
REMARK  Name = ../refined-set-2016/2q8z/2q8z_pocket.pdb
REMARK  218 active torsions:
REMARK  status: ('A' for Active; 'I' for Inactive)
REMARK    1  A    between atoms: _1  and  _3
REMARK    2  A    between atoms: _3  and  _4
REMARK    3  A    between atoms: _3  and  _6
REMARK    4  A    between atoms: _8  and  _10
REMARK    5  A    between atoms: _10  and  _11
REMARK    6  A    between atoms: _10  and  _13
REMARK    7  A    between atoms: _13  and  _14
REMARK    8  A    between atoms: _17  and  _19
REMARK    9  A    between atoms: _19  and  _20
REMARK   10  A    between atoms: _22  and  _24
REMARK   11  A    between atoms: _24  and  _25
REMARK   12  A    between atoms: _24  and  _27
REMARK   13  A    between atoms: _27  and  _28
REMARK   14  A    between atoms: _31  and  _33
REMARK   15  A    between atoms: _33  and  _34
REMARK   16  A    between atoms: _33  and  _36
REMARK   17  A    between atoms: _36  and  _37
REMARK   18  A    between atoms: _40  and  _42
REMARK   19  A    between atoms: _42  and  _43
REMARK   20  A    between atoms: _42  and  _45
REMARK   21  A    between atoms: _45  and  _46
REMARK   22  A    between atoms: _46  and  _47
REMARK   23  A    between atoms: _47  and  _48
REMARK   24  A    between atoms: _48  and  _49
REMARK   25  A    between atoms: _53  and  _55
REMARK   26  A    between atoms: _55  and  _56
REMARK   27  A    between atoms: _55  and  _58
REMARK   28  A    between atoms: _58  and  _59
REMARK   29  A    between atoms: _59  and  _60
REMARK   30  A    between atoms: _62  and  _64
REMARK   31  A    between atoms: _64  and  _65
REMARK   32  A    between atoms: _64  and  _67
REMARK   33  A    between atoms: _67  and  _68
REMARK   34  A    between atoms: _73  and  _75
REMARK   35  A    between atoms: _75  and  _76
REMARK   36  A    between atoms: _75  and  _78
REMARK   37  A    between atoms: _78  and  _79
REMARK   38  A    between atoms: _85  and  _87
REMARK   39  A    between atoms: _87  and  _88
REMARK   40  A    between atoms: _91  and  _93
REMARK   41  A    between atoms: _93  and  _94
REMARK   42  A    between atoms: _93  and  _96
REMARK   43  A    between atoms: _96  and  _97
REMARK   44  A    between atoms: _103  and  _105
REMARK   45  A    between atoms: _105  and  _106
REMARK   46  A    between atoms: _105  and  _108
REMARK   47  A    between atoms: _108  and  _109
REMARK   48  A    between atoms: _112  and  _114
REMARK   49  A    between atoms: _114  and  _115
REMARK   50  A    between atoms: _114  and  _117
REMARK   51  A    between atoms: _117  and  _118
REMARK   52  A    between atoms: _118  and  _119
REMARK   53  A    between atoms: _121  and  _123
REMARK   54  A    between atoms: _123  and  _124
REMARK   55  A    between atoms: _123  and  _126
REMARK   56  A    between atoms: _126  and  _127
REMARK   57  A    between atoms: _127  and  _128
REMARK   58  A    between atoms: _128  and  _129
REMARK   59  A    between atoms: _129  and  _130
REMARK   60  A    between atoms: _134  and  _136
REMARK   61  A    between atoms: _136  and  _137
REMARK   62  A    between atoms: _136  and  _139
REMARK   63  A    between atoms: _139  and  _140
REMARK   64  A    between atoms: _143  and  _145
REMARK   65  A    between atoms: _145  and  _146
REMARK   66  A    between atoms: _145  and  _148
REMARK   67  A    between atoms: _148  and  _149
REMARK   68  A    between atoms: _152  and  _154
REMARK   69  A    between atoms: _154  and  _155
REMARK   70  A    between atoms: _154  and  _157
REMARK   71  A    between atoms: _160  and  _162
REMARK   72  A    between atoms: _162  and  _163
REMARK   73  A    between atoms: _162  and  _165
REMARK   74  A    between atoms: _165  and  _166
REMARK   75  A    between atoms: _166  and  _167
REMARK   76  A    between atoms: _167  and  _168
REMARK   77  A    between atoms: _168  and  _169
REMARK   78  A    between atoms: _173  and  _175
REMARK   79  A    between atoms: _175  and  _176
REMARK   80  A    between atoms: _175  and  _178
REMARK   81  A    between atoms: _178  and  _179
REMARK   82  A    between atoms: _182  and  _184
REMARK   83  A    between atoms: _184  and  _185
REMARK   84  A    between atoms: _184  and  _187
REMARK   85  A    between atoms: _187  and  _188
REMARK   86  A    between atoms: _191  and  _193
REMARK   87  A    between atoms: _193  and  _194
REMARK   88  A    between atoms: _193  and  _196
REMARK   89  A    between atoms: _196  and  _197
REMARK   90  A    between atoms: _202  and  _204
REMARK   91  A    between atoms: _204  and  _205
REMARK   92  A    between atoms: _204  and  _207
REMARK   93  A    between atoms: _207  and  _208
REMARK   94  A    between atoms: _210  and  _212
REMARK   95  A    between atoms: _212  and  _213
REMARK   96  A    between atoms: _212  and  _215
REMARK   97  A    between atoms: _215  and  _216
REMARK   98  A    between atoms: _216  and  _217
REMARK   99  A    between atoms: _222  and  _224
REMARK  100  A    between atoms: _224  and  _225
REMARK  101  A    between atoms: _224  and  _227
REMARK  102  A    between atoms: _230  and  _232
REMARK  103  A    between atoms: _232  and  _233
REMARK  104  A    between atoms: _232  and  _235
REMARK  105  A    between atoms: _238  and  _240
REMARK  106  A    between atoms: _240  and  _241
REMARK  107  A    between atoms: _243  and  _245
REMARK  108  A    between atoms: _245  and  _246
REMARK  109  A    between atoms: _249  and  _251
REMARK  110  A    between atoms: _251  and  _252
REMARK  111  A    between atoms: _251  and  _254
REMARK  112  A    between atoms: _254  and  _255
REMARK  113  A    between atoms: _260  and  _262
REMARK  114  A    between atoms: _262  and  _263
REMARK  115  A    between atoms: _262  and  _265
REMARK  116  A    between atoms: _265  and  _266
REMARK  117  A    between atoms: _268  and  _270
REMARK  118  A    between atoms: _270  and  _271
REMARK  119  A    between atoms: _270  and  _273
REMARK  120  A    between atoms: _273  and  _274
REMARK  121  A    between atoms: _277  and  _279
REMARK  122  A    between atoms: _279  and  _280
REMARK  123  A    between atoms: _279  and  _282
REMARK  124  A    between atoms: _282  and  _283
REMARK  125  A    between atoms: _286  and  _287
REMARK  126  A    between atoms: _292  and  _294
REMARK  127  A    between atoms: _294  and  _295
REMARK  128  A    between atoms: _297  and  _299
REMARK  129  A    between atoms: _299  and  _300
REMARK  130  A    between atoms: _299  and  _302
REMARK  131  A    between atoms: _302  and  _303
REMARK  132  A    between atoms: _306  and  _308
REMARK  133  A    between atoms: _308  and  _309
REMARK  134  A    between atoms: _311  and  _313
REMARK  135  A    between atoms: _313  and  _314
REMARK  136  A    between atoms: _317  and  _319
REMARK  137  A    between atoms: _319  and  _320
REMARK  138  A    between atoms: _319  and  _322
REMARK  139  A    between atoms: _322  and  _323
REMARK  140  A    between atoms: _323  and  _324
REMARK  141  A    between atoms: _329  and  _331
REMARK  142  A    between atoms: _331  and  _332
REMARK  143  A    between atoms: _331  and  _334
REMARK  144  A    between atoms: _334  and  _335
REMARK  145  A    between atoms: _340  and  _342
REMARK  146  A    between atoms: _342  and  _343
REMARK  147  A    between atoms: _345  and  _347
REMARK  148  A    between atoms: _347  and  _348
REMARK  149  A    between atoms: _347  and  _350
REMARK  150  A    between atoms: _350  and  _351
REMARK  151  A    between atoms: _356  and  _358
REMARK  152  A    between atoms: _358  and  _359
REMARK  153  A    between atoms: _358  and  _361
REMARK  154  A    between atoms: _361  and  _362
REMARK  155  A    between atoms: _365  and  _367
REMARK  156  A    between atoms: _367  and  _368
REMARK  157  A    between atoms: _370  and  _372
REMARK  158  A    between atoms: _372  and  _373
REMARK  159  A    between atoms: _372  and  _375
REMARK  160  A    between atoms: _375  and  _376
REMARK  161  A    between atoms: _376  and  _377
REMARK  162  A    between atoms: _377  and  _378
REMARK  163  A    between atoms: _387  and  _389
REMARK  164  A    between atoms: _389  and  _390
REMARK  165  A    between atoms: _393  and  _395
REMARK  166  A    between atoms: _395  and  _396
REMARK  167  A    between atoms: _395  and  _398
REMARK  168  A    between atoms: _398  and  _399
REMARK  169  A    between atoms: _402  and  _404
REMARK  170  A    between atoms: _404  and  _405
REMARK  171  A    between atoms: _404  and  _407
REMARK  172  A    between atoms: _407  and  _408
REMARK  173  A    between atoms: _411  and  _413
REMARK  174  A    between atoms: _413  and  _414
REMARK  175  A    between atoms: _413  and  _416
REMARK  176  A    between atoms: _416  and  _417
REMARK  177  A    between atoms: _417  and  _418
REMARK  178  A    between atoms: _418  and  _419
REMARK  179  A    between atoms: _419  and  _420
REMARK  180  A    between atoms: _424  and  _426
REMARK  181  A    between atoms: _426  and  _427
REMARK  182  A    between atoms: _426  and  _429
REMARK  183  A    between atoms: _429  and  _430
REMARK  184  A    between atoms: _435  and  _437
REMARK  185  A    between atoms: _437  and  _438
REMARK  186  A    between atoms: _437  and  _440
REMARK  187  A    between atoms: _440  and  _441
REMARK  188  A    between atoms: _444  and  _446
REMARK  189  A    between atoms: _446  and  _447
REMARK  190  A    between atoms: _446  and  _449
REMARK  191  A    between atoms: _449  and  _450
REMARK  192  A    between atoms: _453  and  _455
REMARK  193  A    between atoms: _455  and  _456
REMARK  194  A    between atoms: _458  and  _460
REMARK  195  A    between atoms: _460  and  _461
REMARK  196  A    between atoms: _460  and  _463
REMARK  197  A    between atoms: _463  and  _464
REMARK  198  A    between atoms: _469  and  _471
REMARK  199  A    between atoms: _471  and  _472
REMARK  200  A    between atoms: _471  and  _474
REMARK  201  A    between atoms: _474  and  _475
REMARK  202  A    between atoms: _478  and  _480
REMARK  203  A    between atoms: _480  and  _481
REMARK  204  A    between atoms: _480  and  _483
REMARK  205  A    between atoms: _486  and  _488
REMARK  206  A    between atoms: _488  and  _489
REMARK  207  A    between atoms: _488  and  _491
REMARK  208  A    between atoms: _491  and  _492
REMARK  209  A    between atoms: _497  and  _499
REMARK  210  A    between atoms: _499  and  _500
REMARK  211  A    between atoms: _499  and  _502
REMARK  212  A    between atoms: _502  and  _503
REMARK  213  A    between atoms: _508  and  _509
REMARK  214  A    between atoms: _511  and  _513
REMARK  215  A    between atoms: _513  and  _514
REMARK  216  A    between atoms: _513  and  _516
REMARK  217  A    between atoms: _516  and  _517
REMARK  218  A    between atoms: _517  and  _518
REMARK                            x       y       z     vdW  Elec       q    Type
REMARK                         _______ _______ _______ _____ _____    ______ ____
ROOT
ATOM      1  O   HOH     1      12.077 -35.990 -28.713  0.00  0.00    +0.000 OA
ENDROOT
TORSDOF 0
REMARK  Name = ../refined-set-2016/2q8z/2q8z_pocket.pdb
REMARK  218 active torsions:
REMARK  status: ('A' for Active; 'I' for Inactive)
REMARK    1  A    between atoms: _1  and  _3
REMARK    2  A    between atoms: _3  and  _4
REMARK    3  A    between atoms: _3  and  _6
REMARK    4  A    between atoms: _8  and  _10
REMARK    5  A    between atoms: _10  and  _11
REMARK    6  A    between atoms: _10  and  _13
REMARK    7  A    between atoms: _13  and  _14
REMARK    8  A    between atoms: _17  and  _19
REMARK    9  A    between atoms: _19  and  _20
REMARK   10  A    between atoms: _22  and  _24
REMARK   11  A    between atoms: _24  and  _25
REMARK   12  A    between atoms: _24  and  _27
REMARK   13  A    between atoms: _27  and  _28
REMARK   14  A    between atoms: _31  and  _33
REMARK   15  A    between atoms: _33  and  _34
REMARK   16  A    between atoms: _33  and  _36
REMARK   17  A    between atoms: _36  and  _37
REMARK   18  A    between atoms: _40  and  _42
REMARK   19  A    between atoms: _42  and  _43
REMARK   20  A    between atoms: _42  and  _45
REMARK   21  A    between atoms: _45  and  _46
REMARK   22  A    between atoms: _46  and  _47
REMARK   23  A    between atoms: _47  and  _48
REMARK   24  A    between atoms: _48  and  _49
REMARK   25  A    between atoms: _53  and  _55
REMARK   26  A    between atoms: _55  and  _56
REMARK   27  A    between atoms: _55  and  _58
REMARK   28  A    between atoms: _58  and  _59
REMARK   29  A    between atoms: _59  and  _60
REMARK   30  A    between atoms: _62  and  _64
REMARK   31  A    between atoms: _64  and  _65
REMARK   32  A    between atoms: _64  and  _67
REMARK   33  A    between atoms: _67  and  _68
REMARK   34  A    between atoms: _73  and  _75
REMARK   35  A    between atoms: _75  and  _76
REMARK   36  A    between atoms: _75  and  _78
REMARK   37  A    between atoms: _78  and  _79
REMARK   38  A    between atoms: _85  and  _87
REMARK   39  A    between atoms: _87  and  _88
REMARK   40  A    between atoms: _91  and  _93
REMARK   41  A    between atoms: _93  and  _94
REMARK   42  A    between atoms: _93  and  _96
REMARK   43  A    between atoms: _96  and  _97
REMARK   44  A    between atoms: _103  and  _105
REMARK   45  A    between atoms: _105  and  _106
REMARK   46  A    between atoms: _105  and  _108
REMARK   47  A    between atoms: _108  and  _109
REMARK   48  A    between atoms: _112  and  _114
REMARK   49  A    between atoms: _114  and  _115
REMARK   50  A    between atoms: _114  and  _117
REMARK   51  A    between atoms: _117  and  _118
REMARK   52  A    between atoms: _118  and  _119
REMARK   53  A    between atoms: _121  and  _123
REMARK   54  A    between atoms: _123  and  _124
REMARK   55  A    between atoms: _123  and  _126
REMARK   56  A    between atoms: _126  and  _127
REMARK   57  A    between atoms: _127  and  _128
REMARK   58  A    between atoms: _128  and  _129
REMARK   59  A    between atoms: _129  and  _130
REMARK   60  A    between atoms: _134  and  _136
REMARK   61  A    between atoms: _136  and  _137
REMARK   62  A    between atoms: _136  and  _139
REMARK   63  A    between atoms: _139  and  _140
REMARK   64  A    between atoms: _143  and  _145
REMARK   65  A    between atoms: _145  and  _146
REMARK   66  A    between atoms: _145  and  _148
REMARK   67  A    between atoms: _148  and  _149
REMARK   68  A    between atoms: _152  and  _154
REMARK   69  A    between atoms: _154  and  _155
REMARK   70  A    between atoms: _154  and  _157
REMARK   71  A    between atoms: _160  and  _162
REMARK   72  A    between atoms: _162  and  _163
REMARK   73  A    between atoms: _162  and  _165
REMARK   74  A    between atoms: _165  and  _166
REMARK   75  A    between atoms: _166  and  _167
REMARK   76  A    between atoms: _167  and  _168
REMARK   77  A    between atoms: _168  and  _169
REMARK   78  A    between atoms: _173  and  _175
REMARK   79  A    between atoms: _175  and  _176
REMARK   80  A    between atoms: _175  and  _178
REMARK   81  A    between atoms: _178  and  _179
REMARK   82  A    between atoms: _182  and  _184
REMARK   83  A    between atoms: _184  and  _185
REMARK   84  A    between atoms: _184  and  _187
REMARK   85  A    between atoms: _187  and  _188
REMARK   86  A    between atoms: _191  and  _193
REMARK   87  A    between atoms: _193  and  _194
REMARK   88  A    between atoms: _193  and  _196
REMARK   89  A    between atoms: _196  and  _197
REMARK   90  A    between atoms: _202  and  _204
REMARK   91  A    between atoms: _204  and  _205
REMARK   92  A    between atoms: _204  and  _207
REMARK   93  A    between atoms: _207  and  _208
REMARK   94  A    between atoms: _210  and  _212
REMARK   95  A    between atoms: _212  and  _213
REMARK   96  A    between atoms: _212  and  _215
REMARK   97  A    between atoms: _215  and  _216
REMARK   98  A    between atoms: _216  and  _217
REMARK   99  A    between atoms: _222  and  _224
REMARK  100  A    between atoms: _224  and  _225
REMARK  101  A    between atoms: _224  and  _227
REMARK  102  A    between atoms: _230  and  _232
REMARK  103  A    between atoms: _232  and  _233
REMARK  104  A    between atoms: _232  and  _235
REMARK  105  A    between atoms: _238  and  _240
REMARK  106  A    between atoms: _240  and  _241
REMARK  107  A    between atoms: _243  and  _245
REMARK  108  A    between atoms: _245  and  _246
REMARK  109  A    between atoms: _249  and  _251
REMARK  110  A    between atoms: _251  and  _252
REMARK  111  A    between atoms: _251  and  _254
REMARK  112  A    between atoms: _254  and  _255
REMARK  113  A    between atoms: _260  and  _262
REMARK  114  A    between atoms: _262  and  _263
REMARK  115  A    between atoms: _262  and  _265
REMARK  116  A    between atoms: _265  and  _266
REMARK  117  A    between atoms: _268  and  _270
REMARK  118  A    between atoms: _270  and  _271
REMARK  119  A    between atoms: _270  and  _273
REMARK  120  A    between atoms: _273  and  _274
REMARK  121  A    between atoms: _277  and  _279
REMARK  122  A    between atoms: _279  and  _280
REMARK  123  A    between atoms: _279  and  _282
REMARK  124  A    between atoms: _282  and  _283
REMARK  125  A    between atoms: _286  and  _287
REMARK  126  A    between atoms: _292  and  _294
REMARK  127  A    between atoms: _294  and  _295
REMARK  128  A    between atoms: _297  and  _299
REMARK  129  A    between atoms: _299  and  _300
REMARK  130  A    between atoms: _299  and  _302
REMARK  131  A    between atoms: _302  and  _303
REMARK  132  A    between atoms: _306  and  _308
REMARK  133  A    between atoms: _308  and  _309
REMARK  134  A    between atoms: _311  and  _313
REMARK  135  A    between atoms: _313  and  _314
REMARK  136  A    between atoms: _317  and  _319
REMARK  137  A    between atoms: _319  and  _320
REMARK  138  A    between atoms: _319  and  _322
REMARK  139  A    between atoms: _322  and  _323
REMARK  140  A    between atoms: _323  and  _324
REMARK  141  A    between atoms: _329  and  _331
REMARK  142  A    between atoms: _331  and  _332
REMARK  143  A    between atoms: _331  and  _334
REMARK  144  A    between atoms: _334  and  _335
REMARK  145  A    between atoms: _340  and  _342
REMARK  146  A    between atoms: _342  and  _343
REMARK  147  A    between atoms: _345  and  _347
REMARK  148  A    between atoms: _347  and  _348
REMARK  149  A    between atoms: _347  and  _350
REMARK  150  A    between atoms: _350  and  _351
REMARK  151  A    between atoms: _356  and  _358
REMARK  152  A    between atoms: _358  and  _359
REMARK  153  A    between atoms: _358  and  _361
REMARK  154  A    between atoms: _361  and  _362
REMARK  155  A    between atoms: _365  and  _367
REMARK  156  A    between atoms: _367  and  _368
REMARK  157  A    between atoms: _370  and  _372
REMARK  158  A    between atoms: _372  and  _373
REMARK  159  A    between atoms: _372  and  _375
REMARK  160  A    between atoms: _375  and  _376
REMARK  161  A    between atoms: _376  and  _377
REMARK  162  A    between atoms: _377  and  _378
REMARK  163  A    between atoms: _387  and  _389
REMARK  164  A    between atoms: _389  and  _390
REMARK  165  A    between atoms: _393  and  _395
REMARK  166  A    between atoms: _395  and  _396
REMARK  167  A    between atoms: _395  and  _398
REMARK  168  A    between atoms: _398  and  _399
REMARK  169  A    between atoms: _402  and  _404
REMARK  170  A    between atoms: _404  and  _405
REMARK  171  A    between atoms: _404  and  _407
REMARK  172  A    between atoms: _407  and  _408
REMARK  173  A    between atoms: _411  and  _413
REMARK  174  A    between atoms: _413  and  _414
REMARK  175  A    between atoms: _413  and  _416
REMARK  176  A    between atoms: _416  and  _417
REMARK  177  A    between atoms: _417  and  _418
REMARK  178  A    between atoms: _418  and  _419
REMARK  179  A    between atoms: _419  and  _420
REMARK  180  A    between atoms: _424  and  _426
REMARK  181  A    between atoms: _426  and  _427
REMARK  182  A    between atoms: _426  and  _429
REMARK  183  A    between atoms: _429  and  _430
REMARK  184  A    between atoms: _435  and  _437
REMARK  185  A    between atoms: _437  and  _438
REMARK  186  A    between atoms: _437  and  _440
REMARK  187  A    between atoms: _440  and  _441
REMARK  188  A    between atoms: _444  and  _446
REMARK  189  A    between atoms: _446  and  _447
REMARK  190  A    between atoms: _446  and  _449
REMARK  191  A    between atoms: _449  and  _450
REMARK  192  A    between atoms: _453  and  _455
REMARK  193  A    between atoms: _455  and  _456
REMARK  194  A    between atoms: _458  and  _460
REMARK  195  A    between atoms: _460  and  _461
REMARK  196  A    between atoms: _460  and  _463
REMARK  197  A    between atoms: _463  and  _464
REMARK  198  A    between atoms: _469  and  _471
REMARK  199  A    between atoms: _471  and  _472
REMARK  200  A    between atoms: _471  and  _474
REMARK  201  A    between atoms: _474  and  _475
REMARK  202  A    between atoms: _478  and  _480
REMARK  203  A    between atoms: _480  and  _481
REMARK  204  A    between atoms: _480  and  _483
REMARK  205  A    between atoms: _486  and  _488
REMARK  206  A    between atoms: _488  and  _489
REMARK  207  A    between atoms: _488  and  _491
REMARK  208  A    between atoms: _491  and  _492
REMARK  209  A    between atoms: _497  and  _499
REMARK  210  A    between atoms: _499  and  _500
REMARK  211  A    between atoms: _499  and  _502
REMARK  212  A    between atoms: _502  and  _503
REMARK  213  A    between atoms: _508  and  _509
REMARK  214  A    between atoms: _511  and  _513
REMARK  215  A    between atoms: _513  and  _514
REMARK  216  A    between atoms: _513  and  _516
REMARK  217  A    between atoms: _516  and  _517
REMARK  218  A    between atoms: _517  and  _518
REMARK                            x       y       z     vdW  Elec       q    Type
REMARK                         _______ _______ _______ _____ _____    ______ ____
ROOT
ATOM      1  O   HOH     1      12.649 -35.533 -23.747  0.00  0.00    +0.000 OA
ENDROOT
TORSDOF 0
REMARK  Name = ../refined-set-2016/2q8z/2q8z_pocket.pdb
REMARK  218 active torsions:
REMARK  status: ('A' for Active; 'I' for Inactive)
REMARK    1  A    between atoms: _1  and  _3
REMARK    2  A    between atoms: _3  and  _4
REMARK    3  A    between atoms: _3  and  _6
REMARK    4  A    between atoms: _8  and  _10
REMARK    5  A    between atoms: _10  and  _11
REMARK    6  A    between atoms: _10  and  _13
REMARK    7  A    between atoms: _13  and  _14
REMARK    8  A    between atoms: _17  and  _19
REMARK    9  A    between atoms: _19  and  _20
REMARK   10  A    between atoms: _22  and  _24
REMARK   11  A    between atoms: _24  and  _25
REMARK   12  A    between atoms: _24  and  _27
REMARK   13  A    between atoms: _27  and  _28
REMARK   14  A    between atoms: _31  and  _33
REMARK   15  A    between atoms: _33  and  _34
REMARK   16  A    between atoms: _33  and  _36
REMARK   17  A    between atoms: _36  and  _37
REMARK   18  A    between atoms: _40  and  _42
REMARK   19  A    between atoms: _42  and  _43
REMARK   20  A    between atoms: _42  and  _45
REMARK   21  A    between atoms: _45  and  _46
REMARK   22  A    between atoms: _46  and  _47
REMARK   23  A    between atoms: _47  and  _48
REMARK   24  A    between atoms: _48  and  _49
REMARK   25  A    between atoms: _53  and  _55
REMARK   26  A    between atoms: _55  and  _56
REMARK   27  A    between atoms: _55  and  _58
REMARK   28  A    between atoms: _58  and  _59
REMARK   29  A    between atoms: _59  and  _60
REMARK   30  A    between atoms: _62  and  _64
REMARK   31  A    between atoms: _64  and  _65
REMARK   32  A    between atoms: _64  and  _67
REMARK   33  A    between atoms: _67  and  _68
REMARK   34  A    between atoms: _73  and  _75
REMARK   35  A    between atoms: _75  and  _76
REMARK   36  A    between atoms: _75  and  _78
REMARK   37  A    between atoms: _78  and  _79
REMARK   38  A    between atoms: _85  and  _87
REMARK   39  A    between atoms: _87  and  _88
REMARK   40  A    between atoms: _91  and  _93
REMARK   41  A    between atoms: _93  and  _94
REMARK   42  A    between atoms: _93  and  _96
REMARK   43  A    between atoms: _96  and  _97
REMARK   44  A    between atoms: _103  and  _105
REMARK   45  A    between atoms: _105  and  _106
REMARK   46  A    between atoms: _105  and  _108
REMARK   47  A    between atoms: _108  and  _109
REMARK   48  A    between atoms: _112  and  _114
REMARK   49  A    between atoms: _114  and  _115
REMARK   50  A    between atoms: _114  and  _117
REMARK   51  A    between atoms: _117  and  _118
REMARK   52  A    between atoms: _118  and  _119
REMARK   53  A    between atoms: _121  and  _123
REMARK   54  A    between atoms: _123  and  _124
REMARK   55  A    between atoms: _123  and  _126
REMARK   56  A    between atoms: _126  and  _127
REMARK   57  A    between atoms: _127  and  _128
REMARK   58  A    between atoms: _128  and  _129
REMARK   59  A    between atoms: _129  and  _130
REMARK   60  A    between atoms: _134  and  _136
REMARK   61  A    between atoms: _136  and  _137
REMARK   62  A    between atoms: _136  and  _139
REMARK   63  A    between atoms: _139  and  _140
REMARK   64  A    between atoms: _143  and  _145
REMARK   65  A    between atoms: _145  and  _146
REMARK   66  A    between atoms: _145  and  _148
REMARK   67  A    between atoms: _148  and  _149
REMARK   68  A    between atoms: _152  and  _154
REMARK   69  A    between atoms: _154  and  _155
REMARK   70  A    between atoms: _154  and  _157
REMARK   71  A    between atoms: _160  and  _162
REMARK   72  A    between atoms: _162  and  _163
REMARK   73  A    between atoms: _162  and  _165
REMARK   74  A    between atoms: _165  and  _166
REMARK   75  A    between atoms: _166  and  _167
REMARK   76  A    between atoms: _167  and  _168
REMARK   77  A    between atoms: _168  and  _169
REMARK   78  A    between atoms: _173  and  _175
REMARK   79  A    between atoms: _175  and  _176
REMARK   80  A    between atoms: _175  and  _178
REMARK   81  A    between atoms: _178  and  _179
REMARK   82  A    between atoms: _182  and  _184
REMARK   83  A    between atoms: _184  and  _185
REMARK   84  A    between atoms: _184  and  _187
REMARK   85  A    between atoms: _187  and  _188
REMARK   86  A    between atoms: _191  and  _193
REMARK   87  A    between atoms: _193  and  _194
REMARK   88  A    between atoms: _193  and  _196
REMARK   89  A    between atoms: _196  and  _197
REMARK   90  A    between atoms: _202  and  _204
REMARK   91  A    between atoms: _204  and  _205
REMARK   92  A    between atoms: _204  and  _207
REMARK   93  A    between atoms: _207  and  _208
REMARK   94  A    between atoms: _210  and  _212
REMARK   95  A    between atoms: _212  and  _213
REMARK   96  A    between atoms: _212  and  _215
REMARK   97  A    between atoms: _215  and  _216
REMARK   98  A    between atoms: _216  and  _217
REMARK   99  A    between atoms: _222  and  _224
REMARK  100  A    between atoms: _224  and  _225
REMARK  101  A    between atoms: _224  and  _227
REMARK  102  A    between atoms: _230  and  _232
REMARK  103  A    between atoms: _232  and  _233
REMARK  104  A    between atoms: _232  and  _235
REMARK  105  A    between atoms: _238  and  _240
REMARK  106  A    between atoms: _240  and  _241
REMARK  107  A    between atoms: _243  and  _245
REMARK  108  A    between atoms: _245  and  _246
REMARK  109  A    between atoms: _249  and  _251
REMARK  110  A    between atoms: _251  and  _252
REMARK  111  A    between atoms: _251  and  _254
REMARK  112  A    between atoms: _254  and  _255
REMARK  113  A    between atoms: _260  and  _262
REMARK  114  A    between atoms: _262  and  _263
REMARK  115  A    between atoms: _262  and  _265
REMARK  116  A    between atoms: _265  and  _266
REMARK  117  A    between atoms: _268  and  _270
REMARK  118  A    between atoms: _270  and  _271
REMARK  119  A    between atoms: _270  and  _273
REMARK  120  A    between atoms: _273  and  _274
REMARK  121  A    between atoms: _277  and  _279
REMARK  122  A    between atoms: _279  and  _280
REMARK  123  A    between atoms: _279  and  _282
REMARK  124  A    between atoms: _282  and  _283
REMARK  125  A    between atoms: _286  and  _287
REMARK  126  A    between atoms: _292  and  _294
REMARK  127  A    between atoms: _294  and  _295
REMARK  128  A    between atoms: _297  and  _299
REMARK  129  A    between atoms: _299  and  _300
REMARK  130  A    between atoms: _299  and  _302
REMARK  131  A    between atoms: _302  and  _303
REMARK  132  A    between atoms: _306  and  _308
REMARK  133  A    between atoms: _308  and  _309
REMARK  134  A    between atoms: _311  and  _313
REMARK  135  A    between atoms: _313  and  _314
REMARK  136  A    between atoms: _317  and  _319
REMARK  137  A    between atoms: _319  and  _320
REMARK  138  A    between atoms: _319  and  _322
REMARK  139  A    between atoms: _322  and  _323
REMARK  140  A    between atoms: _323  and  _324
REMARK  141  A    between atoms: _329  and  _331
REMARK  142  A    between atoms: _331  and  _332
REMARK  143  A    between atoms: _331  and  _334
REMARK  144  A    between atoms: _334  and  _335
REMARK  145  A    between atoms: _340  and  _342
REMARK  146  A    between atoms: _342  and  _343
REMARK  147  A    between atoms: _345  and  _347
REMARK  148  A    between atoms: _347  and  _348
REMARK  149  A    between atoms: _347  and  _350
REMARK  150  A    between atoms: _350  and  _351
REMARK  151  A    between atoms: _356  and  _358
REMARK  152  A    between atoms: _358  and  _359
REMARK  153  A    between atoms: _358  and  _361
REMARK  154  A    between atoms: _361  and  _362
REMARK  155  A    between atoms: _365  and  _367
REMARK  156  A    between atoms: _367  and  _368
REMARK  157  A    between atoms: _370  and  _372
REMARK  158  A    between atoms: _372  and  _373
REMARK  159  A    between atoms: _372  and  _375
REMARK  160  A    between atoms: _375  and  _376
REMARK  161  A    between atoms: _376  and  _377
REMARK  162  A    between atoms: _377  and  _378
REMARK  163  A    between atoms: _387  and  _389
REMARK  164  A    between atoms: _389  and  _390
REMARK  165  A    between atoms: _393  and  _395
REMARK  166  A    between atoms: _395  and  _396
REMARK  167  A    between atoms: _395  and  _398
REMARK  168  A    between atoms: _398  and  _399
REMARK  169  A    between atoms: _402  and  _404
REMARK  170  A    between atoms: _404  and  _405
REMARK  171  A    between atoms: _404  and  _407
REMARK  172  A    between atoms: _407  and  _408
REMARK  173  A    between atoms: _411  and  _413
REMARK  174  A    between atoms: _413  and  _414
REMARK  175  A    between atoms: _413  and  _416
REMARK  176  A    between atoms: _416  and  _417
REMARK  177  A    between atoms: _417  and  _418
REMARK  178  A    between atoms: _418  and  _419
REMARK  179  A    between atoms: _419  and  _420
REMARK  180  A    between atoms: _424  and  _426
REMARK  181  A    between atoms: _426  and  _427
REMARK  182  A    between atoms: _426  and  _429
REMARK  183  A    between atoms: _429  and  _430
REMARK  184  A    between atoms: _435  and  _437
REMARK  185  A    between atoms: _437  and  _438
REMARK  186  A    between atoms: _437  and  _440
REMARK  187  A    between atoms: _440  and  _441
REMARK  188  A    between atoms: _444  and  _446
REMARK  189  A    between atoms: _446  and  _447
REMARK  190  A    between atoms: _446  and  _449
REMARK  191  A    between atoms: _449  and  _450
REMARK  192  A    between atoms: _453  and  _455
REMARK  193  A    between atoms: _455  and  _456
REMARK  194  A    between atoms: _458  and  _460
REMARK  195  A    between atoms: _460  and  _461
REMARK  196  A    between atoms: _460  and  _463
REMARK  197  A    between atoms: _463  and  _464
REMARK  198  A    between atoms: _469  and  _471
REMARK  199  A    between atoms: _471  and  _472
REMARK  200  A    between atoms: _471  and  _474
REMARK  201  A    between atoms: _474  and  _475
REMARK  202  A    between atoms: _478  and  _480
REMARK  203  A    between atoms: _480  and  _481
REMARK  204  A    between atoms: _480  and  _483
REMARK  205  A    between atoms: _486  and  _488
REMARK  206  A    between atoms: _488  and  _489
REMARK  207  A    between atoms: _488  and  _491
REMARK  208  A    between atoms: _491  and  _492
REMARK  209  A    between atoms: _497  and  _499
REMARK  210  A    between atoms: _499  and  _500
REMARK  211  A    between atoms: _499  and  _502
REMARK  212  A    between atoms: _502  and  _503
REMARK  213  A    between atoms: _508  and  _509
REMARK  214  A    between atoms: _511  and  _513
REMARK  215  A    between atoms: _513  and  _514
REMARK  216  A    between atoms: _513  and  _516
REMARK  217  A    between atoms: _516  and  _517
REMARK  218  A    between atoms: _517  and  _518
REMARK                            x       y       z     vdW  Elec       q    Type
REMARK                         _______ _______ _______ _____ _____    ______ ____
ROOT
ATOM      1  O   HOH     1       4.188 -33.521 -27.809  0.00  0.00    +0.000 OA
ENDROOT
TORSDOF 0
REMARK  Name = ../refined-set-2016/2q8z/2q8z_pocket.pdb
REMARK  218 active torsions:
REMARK  status: ('A' for Active; 'I' for Inactive)
REMARK    1  A    between atoms: _1  and  _3
REMARK    2  A    between atoms: _3  and  _4
REMARK    3  A    between atoms: _3  and  _6
REMARK    4  A    between atoms: _8  and  _10
REMARK    5  A    between atoms: _10  and  _11
REMARK    6  A    between atoms: _10  and  _13
REMARK    7  A    between atoms: _13  and  _14
REMARK    8  A    between atoms: _17  and  _19
REMARK    9  A    between atoms: _19  and  _20
REMARK   10  A    between atoms: _22  and  _24
REMARK   11  A    between atoms: _24  and  _25
REMARK   12  A    between atoms: _24  and  _27
REMARK   13  A    between atoms: _27  and  _28
REMARK   14  A    between atoms: _31  and  _33
REMARK   15  A    between atoms: _33  and  _34
REMARK   16  A    between atoms: _33  and  _36
REMARK   17  A    between atoms: _36  and  _37
REMARK   18  A    between atoms: _40  and  _42
REMARK   19  A    between atoms: _42  and  _43
REMARK   20  A    between atoms: _42  and  _45
REMARK   21  A    between atoms: _45  and  _46
REMARK   22  A    between atoms: _46  and  _47
REMARK   23  A    between atoms: _47  and  _48
REMARK   24  A    between atoms: _48  and  _49
REMARK   25  A    between atoms: _53  and  _55
REMARK   26  A    between atoms: _55  and  _56
REMARK   27  A    between atoms: _55  and  _58
REMARK   28  A    between atoms: _58  and  _59
REMARK   29  A    between atoms: _59  and  _60
REMARK   30  A    between atoms: _62  and  _64
REMARK   31  A    between atoms: _64  and  _65
REMARK   32  A    between atoms: _64  and  _67
REMARK   33  A    between atoms: _67  and  _68
REMARK   34  A    between atoms: _73  and  _75
REMARK   35  A    between atoms: _75  and  _76
REMARK   36  A    between atoms: _75  and  _78
REMARK   37  A    between atoms: _78  and  _79
REMARK   38  A    between atoms: _85  and  _87
REMARK   39  A    between atoms: _87  and  _88
REMARK   40  A    between atoms: _91  and  _93
REMARK   41  A    between atoms: _93  and  _94
REMARK   42  A    between atoms: _93  and  _96
REMARK   43  A    between atoms: _96  and  _97
REMARK   44  A    between atoms: _103  and  _105
REMARK   45  A    between atoms: _105  and  _106
REMARK   46  A    between atoms: _105  and  _108
REMARK   47  A    between atoms: _108  and  _109
REMARK   48  A    between atoms: _112  and  _114
REMARK   49  A    between atoms: _114  and  _115
REMARK   50  A    between atoms: _114  and  _117
REMARK   51  A    between atoms: _117  and  _118
REMARK   52  A    between atoms: _118  and  _119
REMARK   53  A    between atoms: _121  and  _123
REMARK   54  A    between atoms: _123  and  _124
REMARK   55  A    between atoms: _123  and  _126
REMARK   56  A    between atoms: _126  and  _127
REMARK   57  A    between atoms: _127  and  _128
REMARK   58  A    between atoms: _128  and  _129
REMARK   59  A    between atoms: _129  and  _130
REMARK   60  A    between atoms: _134  and  _136
REMARK   61  A    between atoms: _136  and  _137
REMARK   62  A    between atoms: _136  and  _139
REMARK   63  A    between atoms: _139  and  _140
REMARK   64  A    between atoms: _143  and  _145
REMARK   65  A    between atoms: _145  and  _146
REMARK   66  A    between atoms: _145  and  _148
REMARK   67  A    between atoms: _148  and  _149
REMARK   68  A    between atoms: _152  and  _154
REMARK   69  A    between atoms: _154  and  _155
REMARK   70  A    between atoms: _154  and  _157
REMARK   71  A    between atoms: _160  and  _162
REMARK   72  A    between atoms: _162  and  _163
REMARK   73  A    between atoms: _162  and  _165
REMARK   74  A    between atoms: _165  and  _166
REMARK   75  A    between atoms: _166  and  _167
REMARK   76  A    between atoms: _167  and  _168
REMARK   77  A    between atoms: _168  and  _169
REMARK   78  A    between atoms: _173  and  _175
REMARK   79  A    between atoms: _175  and  _176
REMARK   80  A    between atoms: _175  and  _178
REMARK   81  A    between atoms: _178  and  _179
REMARK   82  A    between atoms: _182  and  _184
REMARK   83  A    between atoms: _184  and  _185
REMARK   84  A    between atoms: _184  and  _187
REMARK   85  A    between atoms: _187  and  _188
REMARK   86  A    between atoms: _191  and  _193
REMARK   87  A    between atoms: _193  and  _194
REMARK   88  A    between atoms: _193  and  _196
REMARK   89  A    between atoms: _196  and  _197
REMARK   90  A    between atoms: _202  and  _204
REMARK   91  A    between atoms: _204  and  _205
REMARK   92  A    between atoms: _204  and  _207
REMARK   93  A    between atoms: _207  and  _208
REMARK   94  A    between atoms: _210  and  _212
REMARK   95  A    between atoms: _212  and  _213
REMARK   96  A    between atoms: _212  and  _215
REMARK   97  A    between atoms: _215  and  _216
REMARK   98  A    between atoms: _216  and  _217
REMARK   99  A    between atoms: _222  and  _224
REMARK  100  A    between atoms: _224  and  _225
REMARK  101  A    between atoms: _224  and  _227
REMARK  102  A    between atoms: _230  and  _232
REMARK  103  A    between atoms: _232  and  _233
REMARK  104  A    between atoms: _232  and  _235
REMARK  105  A    between atoms: _238  and  _240
REMARK  106  A    between atoms: _240  and  _241
REMARK  107  A    between atoms: _243  and  _245
REMARK  108  A    between atoms: _245  and  _246
REMARK  109  A    between atoms: _249  and  _251
REMARK  110  A    between atoms: _251  and  _252
REMARK  111  A    between atoms: _251  and  _254
REMARK  112  A    between atoms: _254  and  _255
REMARK  113  A    between atoms: _260  and  _262
REMARK  114  A    between atoms: _262  and  _263
REMARK  115  A    between atoms: _262  and  _265
REMARK  116  A    between atoms: _265  and  _266
REMARK  117  A    between atoms: _268  and  _270
REMARK  118  A    between atoms: _270  and  _271
REMARK  119  A    between atoms: _270  and  _273
REMARK  120  A    between atoms: _273  and  _274
REMARK  121  A    between atoms: _277  and  _279
REMARK  122  A    between atoms: _279  and  _280
REMARK  123  A    between atoms: _279  and  _282
REMARK  124  A    between atoms: _282  and  _283
REMARK  125  A    between atoms: _286  and  _287
REMARK  126  A    between atoms: _292  and  _294
REMARK  127  A    between atoms: _294  and  _295
REMARK  128  A    between atoms: _297  and  _299
REMARK  129  A    between atoms: _299  and  _300
REMARK  130  A    between atoms: _299  and  _302
REMARK  131  A    between atoms: _302  and  _303
REMARK  132  A    between atoms: _306  and  _308
REMARK  133  A    between atoms: _308  and  _309
REMARK  134  A    between atoms: _311  and  _313
REMARK  135  A    between atoms: _313  and  _314
REMARK  136  A    between atoms: _317  and  _319
REMARK  137  A    between atoms: _319  and  _320
REMARK  138  A    between atoms: _319  and  _322
REMARK  139  A    between atoms: _322  and  _323
REMARK  140  A    between atoms: _323  and  _324
REMARK  141  A    between atoms: _329  and  _331
REMARK  142  A    between atoms: _331  and  _332
REMARK  143  A    between atoms: _331  and  _334
REMARK  144  A    between atoms: _334  and  _335
REMARK  145  A    between atoms: _340  and  _342
REMARK  146  A    between atoms: _342  and  _343
REMARK  147  A    between atoms: _345  and  _347
REMARK  148  A    between atoms: _347  and  _348
REMARK  149  A    between atoms: _347  and  _350
REMARK  150  A    between atoms: _350  and  _351
REMARK  151  A    between atoms: _356  and  _358
REMARK  152  A    between atoms: _358  and  _359
REMARK  153  A    between atoms: _358  and  _361
REMARK  154  A    between atoms: _361  and  _362
REMARK  155  A    between atoms: _365  and  _367
REMARK  156  A    between atoms: _367  and  _368
REMARK  157  A    between atoms: _370  and  _372
REMARK  158  A    between atoms: _372  and  _373
REMARK  159  A    between atoms: _372  and  _375
REMARK  160  A    between atoms: _375  and  _376
REMARK  161  A    between atoms: _376  and  _377
REMARK  162  A    between atoms: _377  and  _378
REMARK  163  A    between atoms: _387  and  _389
REMARK  164  A    between atoms: _389  and  _390
REMARK  165  A    between atoms: _393  and  _395
REMARK  166  A    between atoms: _395  and  _396
REMARK  167  A    between atoms: _395  and  _398
REMARK  168  A    between atoms: _398  and  _399
REMARK  169  A    between atoms: _402  and  _404
REMARK  170  A    between atoms: _404  and  _405
REMARK  171  A    between atoms: _404  and  _407
REMARK  172  A    between atoms: _407  and  _408
REMARK  173  A    between atoms: _411  and  _413
REMARK  174  A    between atoms: _413  and  _414
REMARK  175  A    between atoms: _413  and  _416
REMARK  176  A    between atoms: _416  and  _417
REMARK  177  A    between atoms: _417  and  _418
REMARK  178  A    between atoms: _418  and  _419
REMARK  179  A    between atoms: _419  and  _420
REMARK  180  A    between atoms: _424  and  _426
REMARK  181  A    between atoms: _426  and  _427
REMARK  182  A    between atoms: _426  and  _429
REMARK  183  A    between atoms: _429  and  _430
REMARK  184  A    between atoms: _435  and  _437
REMARK  185  A    between atoms: _437  and  _438
REMARK  186  A    between atoms: _437  and  _440
REMARK  187  A    between atoms: _440  and  _441
REMARK  188  A    between atoms: _444  and  _446
REMARK  189  A    between atoms: _446  and  _447
REMARK  190  A    between atoms: _446  and  _449
REMARK  191  A    between atoms: _449  and  _450
REMARK  192  A    between atoms: _453  and  _455
REMARK  193  A    between atoms: _455  and  _456
REMARK  194  A    between atoms: _458  and  _460
REMARK  195  A    between atoms: _460  and  _461
REMARK  196  A    between atoms: _460  and  _463
REMARK  197  A    between atoms: _463  and  _464
REMARK  198  A    between atoms: _469  and  _471
REMARK  199  A    between atoms: _471  and  _472
REMARK  200  A    between atoms: _471  and  _474
REMARK  201  A    between atoms: _474  and  _475
REMARK  202  A    between atoms: _478  and  _480
REMARK  203  A    between atoms: _480  and  _481
REMARK  204  A    between atoms: _480  and  _483
REMARK  205  A    between atoms: _486  and  _488
REMARK  206  A    between atoms: _488  and  _489
REMARK  207  A    between atoms: _488  and  _491
REMARK  208  A    between atoms: _491  and  _492
REMARK  209  A    between atoms: _497  and  _499
REMARK  210  A    between atoms: _499  and  _500
REMARK  211  A    between atoms: _499  and  _502
REMARK  212  A    between atoms: _502  and  _503
REMARK  213  A    between atoms: _508  and  _509
REMARK  214  A    between atoms: _511  and  _513
REMARK  215  A    between atoms: _513  and  _514
REMARK  216  A    between atoms: _513  and  _516
REMARK  217  A    between atoms: _516  and  _517
REMARK  218  A    between atoms: _517  and  _518
REMARK                            x       y       z     vdW  Elec       q    Type
REMARK                         _______ _______ _______ _____ _____    ______ ____
ROOT
ATOM      1  O   HOH     1       3.348 -31.392 -25.022  0.00  0.00    +0.000 OA
ENDROOT
TORSDOF 0
REMARK  Name = ../refined-set-2016/2q8z/2q8z_pocket.pdb
REMARK  218 active torsions:
REMARK  status: ('A' for Active; 'I' for Inactive)
REMARK    1  A    between atoms: _1  and  _3
REMARK    2  A    between atoms: _3  and  _4
REMARK    3  A    between atoms: _3  and  _6
REMARK    4  A    between atoms: _8  and  _10
REMARK    5  A    between atoms: _10  and  _11
REMARK    6  A    between atoms: _10  and  _13
REMARK    7  A    between atoms: _13  and  _14
REMARK    8  A    between atoms: _17  and  _19
REMARK    9  A    between atoms: _19  and  _20
REMARK   10  A    between atoms: _22  and  _24
REMARK   11  A    between atoms: _24  and  _25
REMARK   12  A    between atoms: _24  and  _27
REMARK   13  A    between atoms: _27  and  _28
REMARK   14  A    between atoms: _31  and  _33
REMARK   15  A    between atoms: _33  and  _34
REMARK   16  A    between atoms: _33  and  _36
REMARK   17  A    between atoms: _36  and  _37
REMARK   18  A    between atoms: _40  and  _42
REMARK   19  A    between atoms: _42  and  _43
REMARK   20  A    between atoms: _42  and  _45
REMARK   21  A    between atoms: _45  and  _46
REMARK   22  A    between atoms: _46  and  _47
REMARK   23  A    between atoms: _47  and  _48
REMARK   24  A    between atoms: _48  and  _49
REMARK   25  A    between atoms: _53  and  _55
REMARK   26  A    between atoms: _55  and  _56
REMARK   27  A    between atoms: _55  and  _58
REMARK   28  A    between atoms: _58  and  _59
REMARK   29  A    between atoms: _59  and  _60
REMARK   30  A    between atoms: _62  and  _64
REMARK   31  A    between atoms: _64  and  _65
REMARK   32  A    between atoms: _64  and  _67
REMARK   33  A    between atoms: _67  and  _68
REMARK   34  A    between atoms: _73  and  _75
REMARK   35  A    between atoms: _75  and  _76
REMARK   36  A    between atoms: _75  and  _78
REMARK   37  A    between atoms: _78  and  _79
REMARK   38  A    between atoms: _85  and  _87
REMARK   39  A    between atoms: _87  and  _88
REMARK   40  A    between atoms: _91  and  _93
REMARK   41  A    between atoms: _93  and  _94
REMARK   42  A    between atoms: _93  and  _96
REMARK   43  A    between atoms: _96  and  _97
REMARK   44  A    between atoms: _103  and  _105
REMARK   45  A    between atoms: _105  and  _106
REMARK   46  A    between atoms: _105  and  _108
REMARK   47  A    between atoms: _108  and  _109
REMARK   48  A    between atoms: _112  and  _114
REMARK   49  A    between atoms: _114  and  _115
REMARK   50  A    between atoms: _114  and  _117
REMARK   51  A    between atoms: _117  and  _118
REMARK   52  A    between atoms: _118  and  _119
REMARK   53  A    between atoms: _121  and  _123
REMARK   54  A    between atoms: _123  and  _124
REMARK   55  A    between atoms: _123  and  _126
REMARK   56  A    between atoms: _126  and  _127
REMARK   57  A    between atoms: _127  and  _128
REMARK   58  A    between atoms: _128  and  _129
REMARK   59  A    between atoms: _129  and  _130
REMARK   60  A    between atoms: _134  and  _136
REMARK   61  A    between atoms: _136  and  _137
REMARK   62  A    between atoms: _136  and  _139
REMARK   63  A    between atoms: _139  and  _140
REMARK   64  A    between atoms: _143  and  _145
REMARK   65  A    between atoms: _145  and  _146
REMARK   66  A    between atoms: _145  and  _148
REMARK   67  A    between atoms: _148  and  _149
REMARK   68  A    between atoms: _152  and  _154
REMARK   69  A    between atoms: _154  and  _155
REMARK   70  A    between atoms: _154  and  _157
REMARK   71  A    between atoms: _160  and  _162
REMARK   72  A    between atoms: _162  and  _163
REMARK   73  A    between atoms: _162  and  _165
REMARK   74  A    between atoms: _165  and  _166
REMARK   75  A    between atoms: _166  and  _167
REMARK   76  A    between atoms: _167  and  _168
REMARK   77  A    between atoms: _168  and  _169
REMARK   78  A    between atoms: _173  and  _175
REMARK   79  A    between atoms: _175  and  _176
REMARK   80  A    between atoms: _175  and  _178
REMARK   81  A    between atoms: _178  and  _179
REMARK   82  A    between atoms: _182  and  _184
REMARK   83  A    between atoms: _184  and  _185
REMARK   84  A    between atoms: _184  and  _187
REMARK   85  A    between atoms: _187  and  _188
REMARK   86  A    between atoms: _191  and  _193
REMARK   87  A    between atoms: _193  and  _194
REMARK   88  A    between atoms: _193  and  _196
REMARK   89  A    between atoms: _196  and  _197
REMARK   90  A    between atoms: _202  and  _204
REMARK   91  A    between atoms: _204  and  _205
REMARK   92  A    between atoms: _204  and  _207
REMARK   93  A    between atoms: _207  and  _208
REMARK   94  A    between atoms: _210  and  _212
REMARK   95  A    between atoms: _212  and  _213
REMARK   96  A    between atoms: _212  and  _215
REMARK   97  A    between atoms: _215  and  _216
REMARK   98  A    between atoms: _216  and  _217
REMARK   99  A    between atoms: _222  and  _224
REMARK  100  A    between atoms: _224  and  _225
REMARK  101  A    between atoms: _224  and  _227
REMARK  102  A    between atoms: _230  and  _232
REMARK  103  A    between atoms: _232  and  _233
REMARK  104  A    between atoms: _232  and  _235
REMARK  105  A    between atoms: _238  and  _240
REMARK  106  A    between atoms: _240  and  _241
REMARK  107  A    between atoms: _243  and  _245
REMARK  108  A    between atoms: _245  and  _246
REMARK  109  A    between atoms: _249  and  _251
REMARK  110  A    between atoms: _251  and  _252
REMARK  111  A    between atoms: _251  and  _254
REMARK  112  A    between atoms: _254  and  _255
REMARK  113  A    between atoms: _260  and  _262
REMARK  114  A    between atoms: _262  and  _263
REMARK  115  A    between atoms: _262  and  _265
REMARK  116  A    between atoms: _265  and  _266
REMARK  117  A    between atoms: _268  and  _270
REMARK  118  A    between atoms: _270  and  _271
REMARK  119  A    between atoms: _270  and  _273
REMARK  120  A    between atoms: _273  and  _274
REMARK  121  A    between atoms: _277  and  _279
REMARK  122  A    between atoms: _279  and  _280
REMARK  123  A    between atoms: _279  and  _282
REMARK  124  A    between atoms: _282  and  _283
REMARK  125  A    between atoms: _286  and  _287
REMARK  126  A    between atoms: _292  and  _294
REMARK  127  A    between atoms: _294  and  _295
REMARK  128  A    between atoms: _297  and  _299
REMARK  129  A    between atoms: _299  and  _300
REMARK  130  A    between atoms: _299  and  _302
REMARK  131  A    between atoms: _302  and  _303
REMARK  132  A    between atoms: _306  and  _308
REMARK  133  A    between atoms: _308  and  _309
REMARK  134  A    between atoms: _311  and  _313
REMARK  135  A    between atoms: _313  and  _314
REMARK  136  A    between atoms: _317  and  _319
REMARK  137  A    between atoms: _319  and  _320
REMARK  138  A    between atoms: _319  and  _322
REMARK  139  A    between atoms: _322  and  _323
REMARK  140  A    between atoms: _323  and  _324
REMARK  141  A    between atoms: _329  and  _331
REMARK  142  A    between atoms: _331  and  _332
REMARK  143  A    between atoms: _331  and  _334
REMARK  144  A    between atoms: _334  and  _335
REMARK  145  A    between atoms: _340  and  _342
REMARK  146  A    between atoms: _342  and  _343
REMARK  147  A    between atoms: _345  and  _347
REMARK  148  A    between atoms: _347  and  _348
REMARK  149  A    between atoms: _347  and  _350
REMARK  150  A    between atoms: _350  and  _351
REMARK  151  A    between atoms: _356  and  _358
REMARK  152  A    between atoms: _358  and  _359
REMARK  153  A    between atoms: _358  and  _361
REMARK  154  A    between atoms: _361  and  _362
REMARK  155  A    between atoms: _365  and  _367
REMARK  156  A    between atoms: _367  and  _368
REMARK  157  A    between atoms: _370  and  _372
REMARK  158  A    between atoms: _372  and  _373
REMARK  159  A    between atoms: _372  and  _375
REMARK  160  A    between atoms: _375  and  _376
REMARK  161  A    between atoms: _376  and  _377
REMARK  162  A    between atoms: _377  and  _378
REMARK  163  A    between atoms: _387  and  _389
REMARK  164  A    between atoms: _389  and  _390
REMARK  165  A    between atoms: _393  and  _395
REMARK  166  A    between atoms: _395  and  _396
REMARK  167  A    between atoms: _395  and  _398
REMARK  168  A    between atoms: _398  and  _399
REMARK  169  A    between atoms: _402  and  _404
REMARK  170  A    between atoms: _404  and  _405
REMARK  171  A    between atoms: _404  and  _407
REMARK  172  A    between atoms: _407  and  _408
REMARK  173  A    between atoms: _411  and  _413
REMARK  174  A    between atoms: _413  and  _414
REMARK  175  A    between atoms: _413  and  _416
REMARK  176  A    between atoms: _416  and  _417
REMARK  177  A    between atoms: _417  and  _418
REMARK  178  A    between atoms: _418  and  _419
REMARK  179  A    between atoms: _419  and  _420
REMARK  180  A    between atoms: _424  and  _426
REMARK  181  A    between atoms: _426  and  _427
REMARK  182  A    between atoms: _426  and  _429
REMARK  183  A    between atoms: _429  and  _430
REMARK  184  A    between atoms: _435  and  _437
REMARK  185  A    between atoms: _437  and  _438
REMARK  186  A    between atoms: _437  and  _440
REMARK  187  A    between atoms: _440  and  _441
REMARK  188  A    between atoms: _444  and  _446
REMARK  189  A    between atoms: _446  and  _447
REMARK  190  A    between atoms: _446  and  _449
REMARK  191  A    between atoms: _449  and  _450
REMARK  192  A    between atoms: _453  and  _455
REMARK  193  A    between atoms: _455  and  _456
REMARK  194  A    between atoms: _458  and  _460
REMARK  195  A    between atoms: _460  and  _461
REMARK  196  A    between atoms: _460  and  _463
REMARK  197  A    between atoms: _463  and  _464
REMARK  198  A    between atoms: _469  and  _471
REMARK  199  A    between atoms: _471  and  _472
REMARK  200  A    between atoms: _471  and  _474
REMARK  201  A    between atoms: _474  and  _475
REMARK  202  A    between atoms: _478  and  _480
REMARK  203  A    between atoms: _480  and  _481
REMARK  204  A    between atoms: _480  and  _483
REMARK  205  A    between atoms: _486  and  _488
REMARK  206  A    between atoms: _488  and  _489
REMARK  207  A    between atoms: _488  and  _491
REMARK  208  A    between atoms: _491  and  _492
REMARK  209  A    between atoms: _497  and  _499
REMARK  210  A    between atoms: _499  and  _500
REMARK  211  A    between atoms: _499  and  _502
REMARK  212  A    between atoms: _502  and  _503
REMARK  213  A    between atoms: _508  and  _509
REMARK  214  A    between atoms: _511  and  _513
REMARK  215  A    between atoms: _513  and  _514
REMARK  216  A    between atoms: _513  and  _516
REMARK  217  A    between atoms: _516  and  _517
REMARK  218  A    between atoms: _517  and  _518
REMARK                            x       y       z     vdW  Elec       q    Type
REMARK                         _______ _______ _______ _____ _____    ______ ____
ROOT
ATOM      1  O   HOH     1      10.429 -31.573 -25.383  0.00  0.00    +0.000 OA
ENDROOT
TORSDOF 0
REMARK  Name = ../refined-set-2016/2q8z/2q8z_pocket.pdb
REMARK  218 active torsions:
REMARK  status: ('A' for Active; 'I' for Inactive)
REMARK    1  A    between atoms: _1  and  _3
REMARK    2  A    between atoms: _3  and  _4
REMARK    3  A    between atoms: _3  and  _6
REMARK    4  A    between atoms: _8  and  _10
REMARK    5  A    between atoms: _10  and  _11
REMARK    6  A    between atoms: _10  and  _13
REMARK    7  A    between atoms: _13  and  _14
REMARK    8  A    between atoms: _17  and  _19
REMARK    9  A    between atoms: _19  and  _20
REMARK   10  A    between atoms: _22  and  _24
REMARK   11  A    between atoms: _24  and  _25
REMARK   12  A    between atoms: _24  and  _27
REMARK   13  A    between atoms: _27  and  _28
REMARK   14  A    between atoms: _31  and  _33
REMARK   15  A    between atoms: _33  and  _34
REMARK   16  A    between atoms: _33  and  _36
REMARK   17  A    between atoms: _36  and  _37
REMARK   18  A    between atoms: _40  and  _42
REMARK   19  A    between atoms: _42  and  _43
REMARK   20  A    between atoms: _42  and  _45
REMARK   21  A    between atoms: _45  and  _46
REMARK   22  A    between atoms: _46  and  _47
REMARK   23  A    between atoms: _47  and  _48
REMARK   24  A    between atoms: _48  and  _49
REMARK   25  A    between atoms: _53  and  _55
REMARK   26  A    between atoms: _55  and  _56
REMARK   27  A    between atoms: _55  and  _58
REMARK   28  A    between atoms: _58  and  _59
REMARK   29  A    between atoms: _59  and  _60
REMARK   30  A    between atoms: _62  and  _64
REMARK   31  A    between atoms: _64  and  _65
REMARK   32  A    between atoms: _64  and  _67
REMARK   33  A    between atoms: _67  and  _68
REMARK   34  A    between atoms: _73  and  _75
REMARK   35  A    between atoms: _75  and  _76
REMARK   36  A    between atoms: _75  and  _78
REMARK   37  A    between atoms: _78  and  _79
REMARK   38  A    between atoms: _85  and  _87
REMARK   39  A    between atoms: _87  and  _88
REMARK   40  A    between atoms: _91  and  _93
REMARK   41  A    between atoms: _93  and  _94
REMARK   42  A    between atoms: _93  and  _96
REMARK   43  A    between atoms: _96  and  _97
REMARK   44  A    between atoms: _103  and  _105
REMARK   45  A    between atoms: _105  and  _106
REMARK   46  A    between atoms: _105  and  _108
REMARK   47  A    between atoms: _108  and  _109
REMARK   48  A    between atoms: _112  and  _114
REMARK   49  A    between atoms: _114  and  _115
REMARK   50  A    between atoms: _114  and  _117
REMARK   51  A    between atoms: _117  and  _118
REMARK   52  A    between atoms: _118  and  _119
REMARK   53  A    between atoms: _121  and  _123
REMARK   54  A    between atoms: _123  and  _124
REMARK   55  A    between atoms: _123  and  _126
REMARK   56  A    between atoms: _126  and  _127
REMARK   57  A    between atoms: _127  and  _128
REMARK   58  A    between atoms: _128  and  _129
REMARK   59  A    between atoms: _129  and  _130
REMARK   60  A    between atoms: _134  and  _136
REMARK   61  A    between atoms: _136  and  _137
REMARK   62  A    between atoms: _136  and  _139
REMARK   63  A    between atoms: _139  and  _140
REMARK   64  A    between atoms: _143  and  _145
REMARK   65  A    between atoms: _145  and  _146
REMARK   66  A    between atoms: _145  and  _148
REMARK   67  A    between atoms: _148  and  _149
REMARK   68  A    between atoms: _152  and  _154
REMARK   69  A    between atoms: _154  and  _155
REMARK   70  A    between atoms: _154  and  _157
REMARK   71  A    between atoms: _160  and  _162
REMARK   72  A    between atoms: _162  and  _163
REMARK   73  A    between atoms: _162  and  _165
REMARK   74  A    between atoms: _165  and  _166
REMARK   75  A    between atoms: _166  and  _167
REMARK   76  A    between atoms: _167  and  _168
REMARK   77  A    between atoms: _168  and  _169
REMARK   78  A    between atoms: _173  and  _175
REMARK   79  A    between atoms: _175  and  _176
REMARK   80  A    between atoms: _175  and  _178
REMARK   81  A    between atoms: _178  and  _179
REMARK   82  A    between atoms: _182  and  _184
REMARK   83  A    between atoms: _184  and  _185
REMARK   84  A    between atoms: _184  and  _187
REMARK   85  A    between atoms: _187  and  _188
REMARK   86  A    between atoms: _191  and  _193
REMARK   87  A    between atoms: _193  and  _194
REMARK   88  A    between atoms: _193  and  _196
REMARK   89  A    between atoms: _196  and  _197
REMARK   90  A    between atoms: _202  and  _204
REMARK   91  A    between atoms: _204  and  _205
REMARK   92  A    between atoms: _204  and  _207
REMARK   93  A    between atoms: _207  and  _208
REMARK   94  A    between atoms: _210  and  _212
REMARK   95  A    between atoms: _212  and  _213
REMARK   96  A    between atoms: _212  and  _215
REMARK   97  A    between atoms: _215  and  _216
REMARK   98  A    between atoms: _216  and  _217
REMARK   99  A    between atoms: _222  and  _224
REMARK  100  A    between atoms: _224  and  _225
REMARK  101  A    between atoms: _224  and  _227
REMARK  102  A    between atoms: _230  and  _232
REMARK  103  A    between atoms: _232  and  _233
REMARK  104  A    between atoms: _232  and  _235
REMARK  105  A    between atoms: _238  and  _240
REMARK  106  A    between atoms: _240  and  _241
REMARK  107  A    between atoms: _243  and  _245
REMARK  108  A    between atoms: _245  and  _246
REMARK  109  A    between atoms: _249  and  _251
REMARK  110  A    between atoms: _251  and  _252
REMARK  111  A    between atoms: _251  and  _254
REMARK  112  A    between atoms: _254  and  _255
REMARK  113  A    between atoms: _260  and  _262
REMARK  114  A    between atoms: _262  and  _263
REMARK  115  A    between atoms: _262  and  _265
REMARK  116  A    between atoms: _265  and  _266
REMARK  117  A    between atoms: _268  and  _270
REMARK  118  A    between atoms: _270  and  _271
REMARK  119  A    between atoms: _270  and  _273
REMARK  120  A    between atoms: _273  and  _274
REMARK  121  A    between atoms: _277  and  _279
REMARK  122  A    between atoms: _279  and  _280
REMARK  123  A    between atoms: _279  and  _282
REMARK  124  A    between atoms: _282  and  _283
REMARK  125  A    between atoms: _286  and  _287
REMARK  126  A    between atoms: _292  and  _294
REMARK  127  A    between atoms: _294  and  _295
REMARK  128  A    between atoms: _297  and  _299
REMARK  129  A    between atoms: _299  and  _300
REMARK  130  A    between atoms: _299  and  _302
REMARK  131  A    between atoms: _302  and  _303
REMARK  132  A    between atoms: _306  and  _308
REMARK  133  A    between atoms: _308  and  _309
REMARK  134  A    between atoms: _311  and  _313
REMARK  135  A    between atoms: _313  and  _314
REMARK  136  A    between atoms: _317  and  _319
REMARK  137  A    between atoms: _319  and  _320
REMARK  138  A    between atoms: _319  and  _322
REMARK  139  A    between atoms: _322  and  _323
REMARK  140  A    between atoms: _323  and  _324
REMARK  141  A    between atoms: _329  and  _331
REMARK  142  A    between atoms: _331  and  _332
REMARK  143  A    between atoms: _331  and  _334
REMARK  144  A    between atoms: _334  and  _335
REMARK  145  A    between atoms: _340  and  _342
REMARK  146  A    between atoms: _342  and  _343
REMARK  147  A    between atoms: _345  and  _347
REMARK  148  A    between atoms: _347  and  _348
REMARK  149  A    between atoms: _347  and  _350
REMARK  150  A    between atoms: _350  and  _351
REMARK  151  A    between atoms: _356  and  _358
REMARK  152  A    between atoms: _358  and  _359
REMARK  153  A    between atoms: _358  and  _361
REMARK  154  A    between atoms: _361  and  _362
REMARK  155  A    between atoms: _365  and  _367
REMARK  156  A    between atoms: _367  and  _368
REMARK  157  A    between atoms: _370  and  _372
REMARK  158  A    between atoms: _372  and  _373
REMARK  159  A    between atoms: _372  and  _375
REMARK  160  A    between atoms: _375  and  _376
REMARK  161  A    between atoms: _376  and  _377
REMARK  162  A    between atoms: _377  and  _378
REMARK  163  A    between atoms: _387  and  _389
REMARK  164  A    between atoms: _389  and  _390
REMARK  165  A    between atoms: _393  and  _395
REMARK  166  A    between atoms: _395  and  _396
REMARK  167  A    between atoms: _395  and  _398
REMARK  168  A    between atoms: _398  and  _399
REMARK  169  A    between atoms: _402  and  _404
REMARK  170  A    between atoms: _404  and  _405
REMARK  171  A    between atoms: _404  and  _407
REMARK  172  A    between atoms: _407  and  _408
REMARK  173  A    between atoms: _411  and  _413
REMARK  174  A    between atoms: _413  and  _414
REMARK  175  A    between atoms: _413  and  _416
REMARK  176  A    between atoms: _416  and  _417
REMARK  177  A    between atoms: _417  and  _418
REMARK  178  A    between atoms: _418  and  _419
REMARK  179  A    between atoms: _419  and  _420
REMARK  180  A    between atoms: _424  and  _426
REMARK  181  A    between atoms: _426  and  _427
REMARK  182  A    between atoms: _426  and  _429
REMARK  183  A    between atoms: _429  and  _430
REMARK  184  A    between atoms: _435  and  _437
REMARK  185  A    between atoms: _437  and  _438
REMARK  186  A    between atoms: _437  and  _440
REMARK  187  A    between atoms: _440  and  _441
REMARK  188  A    between atoms: _444  and  _446
REMARK  189  A    between atoms: _446  and  _447
REMARK  190  A    between atoms: _446  and  _449
REMARK  191  A    between atoms: _449  and  _450
REMARK  192  A    between atoms: _453  and  _455
REMARK  193  A    between atoms: _455  and  _456
REMARK  194  A    between atoms: _458  and  _460
REMARK  195  A    between atoms: _460  and  _461
REMARK  196  A    between atoms: _460  and  _463
REMARK  197  A    between atoms: _463  and  _464
REMARK  198  A    between atoms: _469  and  _471
REMARK  199  A    between atoms: _471  and  _472
REMARK  200  A    between atoms: _471  and  _474
REMARK  201  A    between atoms: _474  and  _475
REMARK  202  A    between atoms: _478  and  _480
REMARK  203  A    between atoms: _480  and  _481
REMARK  204  A    between atoms: _480  and  _483
REMARK  205  A    between atoms: _486  and  _488
REMARK  206  A    between atoms: _488  and  _489
REMARK  207  A    between atoms: _488  and  _491
REMARK  208  A    between atoms: _491  and  _492
REMARK  209  A    between atoms: _497  and  _499
REMARK  210  A    between atoms: _499  and  _500
REMARK  211  A    between atoms: _499  and  _502
REMARK  212  A    between atoms: _502  and  _503
REMARK  213  A    between atoms: _508  and  _509
REMARK  214  A    between atoms: _511  and  _513
REMARK  215  A    between atoms: _513  and  _514
REMARK  216  A    between atoms: _513  and  _516
REMARK  217  A    between atoms: _516  and  _517
REMARK  218  A    between atoms: _517  and  _518
REMARK                            x       y       z     vdW  Elec       q    Type
REMARK                         _______ _______ _______ _____ _____    ______ ____
ROOT
ATOM      1  O   HOH     1       4.270 -28.798 -26.998  0.00  0.00    +0.000 OA
ENDROOT
TORSDOF 0
REMARK  Name = ../refined-set-2016/2q8z/2q8z_pocket.pdb
REMARK  218 active torsions:
REMARK  status: ('A' for Active; 'I' for Inactive)
REMARK    1  A    between atoms: _1  and  _3
REMARK    2  A    between atoms: _3  and  _4
REMARK    3  A    between atoms: _3  and  _6
REMARK    4  A    between atoms: _8  and  _10
REMARK    5  A    between atoms: _10  and  _11
REMARK    6  A    between atoms: _10  and  _13
REMARK    7  A    between atoms: _13  and  _14
REMARK    8  A    between atoms: _17  and  _19
REMARK    9  A    between atoms: _19  and  _20
REMARK   10  A    between atoms: _22  and  _24
REMARK   11  A    between atoms: _24  and  _25
REMARK   12  A    between atoms: _24  and  _27
REMARK   13  A    between atoms: _27  and  _28
REMARK   14  A    between atoms: _31  and  _33
REMARK   15  A    between atoms: _33  and  _34
REMARK   16  A    between atoms: _33  and  _36
REMARK   17  A    between atoms: _36  and  _37
REMARK   18  A    between atoms: _40  and  _42
REMARK   19  A    between atoms: _42  and  _43
REMARK   20  A    between atoms: _42  and  _45
REMARK   21  A    between atoms: _45  and  _46
REMARK   22  A    between atoms: _46  and  _47
REMARK   23  A    between atoms: _47  and  _48
REMARK   24  A    between atoms: _48  and  _49
REMARK   25  A    between atoms: _53  and  _55
REMARK   26  A    between atoms: _55  and  _56
REMARK   27  A    between atoms: _55  and  _58
REMARK   28  A    between atoms: _58  and  _59
REMARK   29  A    between atoms: _59  and  _60
REMARK   30  A    between atoms: _62  and  _64
REMARK   31  A    between atoms: _64  and  _65
REMARK   32  A    between atoms: _64  and  _67
REMARK   33  A    between atoms: _67  and  _68
REMARK   34  A    between atoms: _73  and  _75
REMARK   35  A    between atoms: _75  and  _76
REMARK   36  A    between atoms: _75  and  _78
REMARK   37  A    between atoms: _78  and  _79
REMARK   38  A    between atoms: _85  and  _87
REMARK   39  A    between atoms: _87  and  _88
REMARK   40  A    between atoms: _91  and  _93
REMARK   41  A    between atoms: _93  and  _94
REMARK   42  A    between atoms: _93  and  _96
REMARK   43  A    between atoms: _96  and  _97
REMARK   44  A    between atoms: _103  and  _105
REMARK   45  A    between atoms: _105  and  _106
REMARK   46  A    between atoms: _105  and  _108
REMARK   47  A    between atoms: _108  and  _109
REMARK   48  A    between atoms: _112  and  _114
REMARK   49  A    between atoms: _114  and  _115
REMARK   50  A    between atoms: _114  and  _117
REMARK   51  A    between atoms: _117  and  _118
REMARK   52  A    between atoms: _118  and  _119
REMARK   53  A    between atoms: _121  and  _123
REMARK   54  A    between atoms: _123  and  _124
REMARK   55  A    between atoms: _123  and  _126
REMARK   56  A    between atoms: _126  and  _127
REMARK   57  A    between atoms: _127  and  _128
REMARK   58  A    between atoms: _128  and  _129
REMARK   59  A    between atoms: _129  and  _130
REMARK   60  A    between atoms: _134  and  _136
REMARK   61  A    between atoms: _136  and  _137
REMARK   62  A    between atoms: _136  and  _139
REMARK   63  A    between atoms: _139  and  _140
REMARK   64  A    between atoms: _143  and  _145
REMARK   65  A    between atoms: _145  and  _146
REMARK   66  A    between atoms: _145  and  _148
REMARK   67  A    between atoms: _148  and  _149
REMARK   68  A    between atoms: _152  and  _154
REMARK   69  A    between atoms: _154  and  _155
REMARK   70  A    between atoms: _154  and  _157
REMARK   71  A    between atoms: _160  and  _162
REMARK   72  A    between atoms: _162  and  _163
REMARK   73  A    between atoms: _162  and  _165
REMARK   74  A    between atoms: _165  and  _166
REMARK   75  A    between atoms: _166  and  _167
REMARK   76  A    between atoms: _167  and  _168
REMARK   77  A    between atoms: _168  and  _169
REMARK   78  A    between atoms: _173  and  _175
REMARK   79  A    between atoms: _175  and  _176
REMARK   80  A    between atoms: _175  and  _178
REMARK   81  A    between atoms: _178  and  _179
REMARK   82  A    between atoms: _182  and  _184
REMARK   83  A    between atoms: _184  and  _185
REMARK   84  A    between atoms: _184  and  _187
REMARK   85  A    between atoms: _187  and  _188
REMARK   86  A    between atoms: _191  and  _193
REMARK   87  A    between atoms: _193  and  _194
REMARK   88  A    between atoms: _193  and  _196
REMARK   89  A    between atoms: _196  and  _197
REMARK   90  A    between atoms: _202  and  _204
REMARK   91  A    between atoms: _204  and  _205
REMARK   92  A    between atoms: _204  and  _207
REMARK   93  A    between atoms: _207  and  _208
REMARK   94  A    between atoms: _210  and  _212
REMARK   95  A    between atoms: _212  and  _213
REMARK   96  A    between atoms: _212  and  _215
REMARK   97  A    between atoms: _215  and  _216
REMARK   98  A    between atoms: _216  and  _217
REMARK   99  A    between atoms: _222  and  _224
REMARK  100  A    between atoms: _224  and  _225
REMARK  101  A    between atoms: _224  and  _227
REMARK  102  A    between atoms: _230  and  _232
REMARK  103  A    between atoms: _232  and  _233
REMARK  104  A    between atoms: _232  and  _235
REMARK  105  A    between atoms: _238  and  _240
REMARK  106  A    between atoms: _240  and  _241
REMARK  107  A    between atoms: _243  and  _245
REMARK  108  A    between atoms: _245  and  _246
REMARK  109  A    between atoms: _249  and  _251
REMARK  110  A    between atoms: _251  and  _252
REMARK  111  A    between atoms: _251  and  _254
REMARK  112  A    between atoms: _254  and  _255
REMARK  113  A    between atoms: _260  and  _262
REMARK  114  A    between atoms: _262  and  _263
REMARK  115  A    between atoms: _262  and  _265
REMARK  116  A    between atoms: _265  and  _266
REMARK  117  A    between atoms: _268  and  _270
REMARK  118  A    between atoms: _270  and  _271
REMARK  119  A    between atoms: _270  and  _273
REMARK  120  A    between atoms: _273  and  _274
REMARK  121  A    between atoms: _277  and  _279
REMARK  122  A    between atoms: _279  and  _280
REMARK  123  A    between atoms: _279  and  _282
REMARK  124  A    between atoms: _282  and  _283
REMARK  125  A    between atoms: _286  and  _287
REMARK  126  A    between atoms: _292  and  _294
REMARK  127  A    between atoms: _294  and  _295
REMARK  128  A    between atoms: _297  and  _299
REMARK  129  A    between atoms: _299  and  _300
REMARK  130  A    between atoms: _299  and  _302
REMARK  131  A    between atoms: _302  and  _303
REMARK  132  A    between atoms: _306  and  _308
REMARK  133  A    between atoms: _308  and  _309
REMARK  134  A    between atoms: _311  and  _313
REMARK  135  A    between atoms: _313  and  _314
REMARK  136  A    between atoms: _317  and  _319
REMARK  137  A    between atoms: _319  and  _320
REMARK  138  A    between atoms: _319  and  _322
REMARK  139  A    between atoms: _322  and  _323
REMARK  140  A    between atoms: _323  and  _324
REMARK  141  A    between atoms: _329  and  _331
REMARK  142  A    between atoms: _331  and  _332
REMARK  143  A    between atoms: _331  and  _334
REMARK  144  A    between atoms: _334  and  _335
REMARK  145  A    between atoms: _340  and  _342
REMARK  146  A    between atoms: _342  and  _343
REMARK  147  A    between atoms: _345  and  _347
REMARK  148  A    between atoms: _347  and  _348
REMARK  149  A    between atoms: _347  and  _350
REMARK  150  A    between atoms: _350  and  _351
REMARK  151  A    between atoms: _356  and  _358
REMARK  152  A    between atoms: _358  and  _359
REMARK  153  A    between atoms: _358  and  _361
REMARK  154  A    between atoms: _361  and  _362
REMARK  155  A    between atoms: _365  and  _367
REMARK  156  A    between atoms: _367  and  _368
REMARK  157  A    between atoms: _370  and  _372
REMARK  158  A    between atoms: _372  and  _373
REMARK  159  A    between atoms: _372  and  _375
REMARK  160  A    between atoms: _375  and  _376
REMARK  161  A    between atoms: _376  and  _377
REMARK  162  A    between atoms: _377  and  _378
REMARK  163  A    between atoms: _387  and  _389
REMARK  164  A    between atoms: _389  and  _390
REMARK  165  A    between atoms: _393  and  _395
REMARK  166  A    between atoms: _395  and  _396
REMARK  167  A    between atoms: _395  and  _398
REMARK  168  A    between atoms: _398  and  _399
REMARK  169  A    between atoms: _402  and  _404
REMARK  170  A    between atoms: _404  and  _405
REMARK  171  A    between atoms: _404  and  _407
REMARK  172  A    between atoms: _407  and  _408
REMARK  173  A    between atoms: _411  and  _413
REMARK  174  A    between atoms: _413  and  _414
REMARK  175  A    between atoms: _413  and  _416
REMARK  176  A    between atoms: _416  and  _417
REMARK  177  A    between atoms: _417  and  _418
REMARK  178  A    between atoms: _418  and  _419
REMARK  179  A    between atoms: _419  and  _420
REMARK  180  A    between atoms: _424  and  _426
REMARK  181  A    between atoms: _426  and  _427
REMARK  182  A    between atoms: _426  and  _429
REMARK  183  A    between atoms: _429  and  _430
REMARK  184  A    between atoms: _435  and  _437
REMARK  185  A    between atoms: _437  and  _438
REMARK  186  A    between atoms: _437  and  _440
REMARK  187  A    between atoms: _440  and  _441
REMARK  188  A    between atoms: _444  and  _446
REMARK  189  A    between atoms: _446  and  _447
REMARK  190  A    between atoms: _446  and  _449
REMARK  191  A    between atoms: _449  and  _450
REMARK  192  A    between atoms: _453  and  _455
REMARK  193  A    between atoms: _455  and  _456
REMARK  194  A    between atoms: _458  and  _460
REMARK  195  A    between atoms: _460  and  _461
REMARK  196  A    between atoms: _460  and  _463
REMARK  197  A    between atoms: _463  and  _464
REMARK  198  A    between atoms: _469  and  _471
REMARK  199  A    between atoms: _471  and  _472
REMARK  200  A    between atoms: _471  and  _474
REMARK  201  A    between atoms: _474  and  _475
REMARK  202  A    between atoms: _478  and  _480
REMARK  203  A    between atoms: _480  and  _481
REMARK  204  A    between atoms: _480  and  _483
REMARK  205  A    between atoms: _486  and  _488
REMARK  206  A    between atoms: _488  and  _489
REMARK  207  A    between atoms: _488  and  _491
REMARK  208  A    between atoms: _491  and  _492
REMARK  209  A    between atoms: _497  and  _499
REMARK  210  A    between atoms: _499  and  _500
REMARK  211  A    between atoms: _499  and  _502
REMARK  212  A    between atoms: _502  and  _503
REMARK  213  A    between atoms: _508  and  _509
REMARK  214  A    between atoms: _511  and  _513
REMARK  215  A    between atoms: _513  and  _514
REMARK  216  A    between atoms: _513  and  _516
REMARK  217  A    between atoms: _516  and  _517
REMARK  218  A    between atoms: _517  and  _518
REMARK                            x       y       z     vdW  Elec       q    Type
REMARK                         _______ _______ _______ _____ _____    ______ ____
ROOT
ATOM      1  O   HOH     1       0.659 -27.301 -27.848  0.00  0.00    +0.000 OA
ENDROOT
TORSDOF 0
REMARK  Name = ../refined-set-2016/2q8z/2q8z_pocket.pdb
REMARK  218 active torsions:
REMARK  status: ('A' for Active; 'I' for Inactive)
REMARK    1  A    between atoms: _1  and  _3
REMARK    2  A    between atoms: _3  and  _4
REMARK    3  A    between atoms: _3  and  _6
REMARK    4  A    between atoms: _8  and  _10
REMARK    5  A    between atoms: _10  and  _11
REMARK    6  A    between atoms: _10  and  _13
REMARK    7  A    between atoms: _13  and  _14
REMARK    8  A    between atoms: _17  and  _19
REMARK    9  A    between atoms: _19  and  _20
REMARK   10  A    between atoms: _22  and  _24
REMARK   11  A    between atoms: _24  and  _25
REMARK   12  A    between atoms: _24  and  _27
REMARK   13  A    between atoms: _27  and  _28
REMARK   14  A    between atoms: _31  and  _33
REMARK   15  A    between atoms: _33  and  _34
REMARK   16  A    between atoms: _33  and  _36
REMARK   17  A    between atoms: _36  and  _37
REMARK   18  A    between atoms: _40  and  _42
REMARK   19  A    between atoms: _42  and  _43
REMARK   20  A    between atoms: _42  and  _45
REMARK   21  A    between atoms: _45  and  _46
REMARK   22  A    between atoms: _46  and  _47
REMARK   23  A    between atoms: _47  and  _48
REMARK   24  A    between atoms: _48  and  _49
REMARK   25  A    between atoms: _53  and  _55
REMARK   26  A    between atoms: _55  and  _56
REMARK   27  A    between atoms: _55  and  _58
REMARK   28  A    between atoms: _58  and  _59
REMARK   29  A    between atoms: _59  and  _60
REMARK   30  A    between atoms: _62  and  _64
REMARK   31  A    between atoms: _64  and  _65
REMARK   32  A    between atoms: _64  and  _67
REMARK   33  A    between atoms: _67  and  _68
REMARK   34  A    between atoms: _73  and  _75
REMARK   35  A    between atoms: _75  and  _76
REMARK   36  A    between atoms: _75  and  _78
REMARK   37  A    between atoms: _78  and  _79
REMARK   38  A    between atoms: _85  and  _87
REMARK   39  A    between atoms: _87  and  _88
REMARK   40  A    between atoms: _91  and  _93
REMARK   41  A    between atoms: _93  and  _94
REMARK   42  A    between atoms: _93  and  _96
REMARK   43  A    between atoms: _96  and  _97
REMARK   44  A    between atoms: _103  and  _105
REMARK   45  A    between atoms: _105  and  _106
REMARK   46  A    between atoms: _105  and  _108
REMARK   47  A    between atoms: _108  and  _109
REMARK   48  A    between atoms: _112  and  _114
REMARK   49  A    between atoms: _114  and  _115
REMARK   50  A    between atoms: _114  and  _117
REMARK   51  A    between atoms: _117  and  _118
REMARK   52  A    between atoms: _118  and  _119
REMARK   53  A    between atoms: _121  and  _123
REMARK   54  A    between atoms: _123  and  _124
REMARK   55  A    between atoms: _123  and  _126
REMARK   56  A    between atoms: _126  and  _127
REMARK   57  A    between atoms: _127  and  _128
REMARK   58  A    between atoms: _128  and  _129
REMARK   59  A    between atoms: _129  and  _130
REMARK   60  A    between atoms: _134  and  _136
REMARK   61  A    between atoms: _136  and  _137
REMARK   62  A    between atoms: _136  and  _139
REMARK   63  A    between atoms: _139  and  _140
REMARK   64  A    between atoms: _143  and  _145
REMARK   65  A    between atoms: _145  and  _146
REMARK   66  A    between atoms: _145  and  _148
REMARK   67  A    between atoms: _148  and  _149
REMARK   68  A    between atoms: _152  and  _154
REMARK   69  A    between atoms: _154  and  _155
REMARK   70  A    between atoms: _154  and  _157
REMARK   71  A    between atoms: _160  and  _162
REMARK   72  A    between atoms: _162  and  _163
REMARK   73  A    between atoms: _162  and  _165
REMARK   74  A    between atoms: _165  and  _166
REMARK   75  A    between atoms: _166  and  _167
REMARK   76  A    between atoms: _167  and  _168
REMARK   77  A    between atoms: _168  and  _169
REMARK   78  A    between atoms: _173  and  _175
REMARK   79  A    between atoms: _175  and  _176
REMARK   80  A    between atoms: _175  and  _178
REMARK   81  A    between atoms: _178  and  _179
REMARK   82  A    between atoms: _182  and  _184
REMARK   83  A    between atoms: _184  and  _185
REMARK   84  A    between atoms: _184  and  _187
REMARK   85  A    between atoms: _187  and  _188
REMARK   86  A    between atoms: _191  and  _193
REMARK   87  A    between atoms: _193  and  _194
REMARK   88  A    between atoms: _193  and  _196
REMARK   89  A    between atoms: _196  and  _197
REMARK   90  A    between atoms: _202  and  _204
REMARK   91  A    between atoms: _204  and  _205
REMARK   92  A    between atoms: _204  and  _207
REMARK   93  A    between atoms: _207  and  _208
REMARK   94  A    between atoms: _210  and  _212
REMARK   95  A    between atoms: _212  and  _213
REMARK   96  A    between atoms: _212  and  _215
REMARK   97  A    between atoms: _215  and  _216
REMARK   98  A    between atoms: _216  and  _217
REMARK   99  A    between atoms: _222  and  _224
REMARK  100  A    between atoms: _224  and  _225
REMARK  101  A    between atoms: _224  and  _227
REMARK  102  A    between atoms: _230  and  _232
REMARK  103  A    between atoms: _232  and  _233
REMARK  104  A    between atoms: _232  and  _235
REMARK  105  A    between atoms: _238  and  _240
REMARK  106  A    between atoms: _240  and  _241
REMARK  107  A    between atoms: _243  and  _245
REMARK  108  A    between atoms: _245  and  _246
REMARK  109  A    between atoms: _249  and  _251
REMARK  110  A    between atoms: _251  and  _252
REMARK  111  A    between atoms: _251  and  _254
REMARK  112  A    between atoms: _254  and  _255
REMARK  113  A    between atoms: _260  and  _262
REMARK  114  A    between atoms: _262  and  _263
REMARK  115  A    between atoms: _262  and  _265
REMARK  116  A    between atoms: _265  and  _266
REMARK  117  A    between atoms: _268  and  _270
REMARK  118  A    between atoms: _270  and  _271
REMARK  119  A    between atoms: _270  and  _273
REMARK  120  A    between atoms: _273  and  _274
REMARK  121  A    between atoms: _277  and  _279
REMARK  122  A    between atoms: _279  and  _280
REMARK  123  A    between atoms: _279  and  _282
REMARK  124  A    between atoms: _282  and  _283
REMARK  125  A    between atoms: _286  and  _287
REMARK  126  A    between atoms: _292  and  _294
REMARK  127  A    between atoms: _294  and  _295
REMARK  128  A    between atoms: _297  and  _299
REMARK  129  A    between atoms: _299  and  _300
REMARK  130  A    between atoms: _299  and  _302
REMARK  131  A    between atoms: _302  and  _303
REMARK  132  A    between atoms: _306  and  _308
REMARK  133  A    between atoms: _308  and  _309
REMARK  134  A    between atoms: _311  and  _313
REMARK  135  A    between atoms: _313  and  _314
REMARK  136  A    between atoms: _317  and  _319
REMARK  137  A    between atoms: _319  and  _320
REMARK  138  A    between atoms: _319  and  _322
REMARK  139  A    between atoms: _322  and  _323
REMARK  140  A    between atoms: _323  and  _324
REMARK  141  A    between atoms: _329  and  _331
REMARK  142  A    between atoms: _331  and  _332
REMARK  143  A    between atoms: _331  and  _334
REMARK  144  A    between atoms: _334  and  _335
REMARK  145  A    between atoms: _340  and  _342
REMARK  146  A    between atoms: _342  and  _343
REMARK  147  A    between atoms: _345  and  _347
REMARK  148  A    between atoms: _347  and  _348
REMARK  149  A    between atoms: _347  and  _350
REMARK  150  A    between atoms: _350  and  _351
REMARK  151  A    between atoms: _356  and  _358
REMARK  152  A    between atoms: _358  and  _359
REMARK  153  A    between atoms: _358  and  _361
REMARK  154  A    between atoms: _361  and  _362
REMARK  155  A    between atoms: _365  and  _367
REMARK  156  A    between atoms: _367  and  _368
REMARK  157  A    between atoms: _370  and  _372
REMARK  158  A    between atoms: _372  and  _373
REMARK  159  A    between atoms: _372  and  _375
REMARK  160  A    between atoms: _375  and  _376
REMARK  161  A    between atoms: _376  and  _377
REMARK  162  A    between atoms: _377  and  _378
REMARK  163  A    between atoms: _387  and  _389
REMARK  164  A    between atoms: _389  and  _390
REMARK  165  A    between atoms: _393  and  _395
REMARK  166  A    between atoms: _395  and  _396
REMARK  167  A    between atoms: _395  and  _398
REMARK  168  A    between atoms: _398  and  _399
REMARK  169  A    between atoms: _402  and  _404
REMARK  170  A    between atoms: _404  and  _405
REMARK  171  A    between atoms: _404  and  _407
REMARK  172  A    between atoms: _407  and  _408
REMARK  173  A    between atoms: _411  and  _413
REMARK  174  A    between atoms: _413  and  _414
REMARK  175  A    between atoms: _413  and  _416
REMARK  176  A    between atoms: _416  and  _417
REMARK  177  A    between atoms: _417  and  _418
REMARK  178  A    between atoms: _418  and  _419
REMARK  179  A    between atoms: _419  and  _420
REMARK  180  A    between atoms: _424  and  _426
REMARK  181  A    between atoms: _426  and  _427
REMARK  182  A    between atoms: _426  and  _429
REMARK  183  A    between atoms: _429  and  _430
REMARK  184  A    between atoms: _435  and  _437
REMARK  185  A    between atoms: _437  and  _438
REMARK  186  A    between atoms: _437  and  _440
REMARK  187  A    between atoms: _440  and  _441
REMARK  188  A    between atoms: _444  and  _446
REMARK  189  A    between atoms: _446  and  _447
REMARK  190  A    between atoms: _446  and  _449
REMARK  191  A    between atoms: _449  and  _450
REMARK  192  A    between atoms: _453  and  _455
REMARK  193  A    between atoms: _455  and  _456
REMARK  194  A    between atoms: _458  and  _460
REMARK  195  A    between atoms: _460  and  _461
REMARK  196  A    between atoms: _460  and  _463
REMARK  197  A    between atoms: _463  and  _464
REMARK  198  A    between atoms: _469  and  _471
REMARK  199  A    between atoms: _471  and  _472
REMARK  200  A    between atoms: _471  and  _474
REMARK  201  A    between atoms: _474  and  _475
REMARK  202  A    between atoms: _478  and  _480
REMARK  203  A    between atoms: _480  and  _481
REMARK  204  A    between atoms: _480  and  _483
REMARK  205  A    between atoms: _486  and  _488
REMARK  206  A    between atoms: _488  and  _489
REMARK  207  A    between atoms: _488  and  _491
REMARK  208  A    between atoms: _491  and  _492
REMARK  209  A    between atoms: _497  and  _499
REMARK  210  A    between atoms: _499  and  _500
REMARK  211  A    between atoms: _499  and  _502
REMARK  212  A    between atoms: _502  and  _503
REMARK  213  A    between atoms: _508  and  _509
REMARK  214  A    between atoms: _511  and  _513
REMARK  215  A    between atoms: _513  and  _514
REMARK  216  A    between atoms: _513  and  _516
REMARK  217  A    between atoms: _516  and  _517
REMARK  218  A    between atoms: _517  and  _518
REMARK                            x       y       z     vdW  Elec       q    Type
REMARK                         _______ _______ _______ _____ _____    ______ ____
ROOT
ATOM      1  O   HOH     1       6.745 -32.917 -19.627  0.00  0.00    +0.000 OA
ENDROOT
TORSDOF 0
REMARK  Name = ../refined-set-2016/2q8z/2q8z_pocket.pdb
REMARK  218 active torsions:
REMARK  status: ('A' for Active; 'I' for Inactive)
REMARK    1  A    between atoms: _1  and  _3
REMARK    2  A    between atoms: _3  and  _4
REMARK    3  A    between atoms: _3  and  _6
REMARK    4  A    between atoms: _8  and  _10
REMARK    5  A    between atoms: _10  and  _11
REMARK    6  A    between atoms: _10  and  _13
REMARK    7  A    between atoms: _13  and  _14
REMARK    8  A    between atoms: _17  and  _19
REMARK    9  A    between atoms: _19  and  _20
REMARK   10  A    between atoms: _22  and  _24
REMARK   11  A    between atoms: _24  and  _25
REMARK   12  A    between atoms: _24  and  _27
REMARK   13  A    between atoms: _27  and  _28
REMARK   14  A    between atoms: _31  and  _33
REMARK   15  A    between atoms: _33  and  _34
REMARK   16  A    between atoms: _33  and  _36
REMARK   17  A    between atoms: _36  and  _37
REMARK   18  A    between atoms: _40  and  _42
REMARK   19  A    between atoms: _42  and  _43
REMARK   20  A    between atoms: _42  and  _45
REMARK   21  A    between atoms: _45  and  _46
REMARK   22  A    between atoms: _46  and  _47
REMARK   23  A    between atoms: _47  and  _48
REMARK   24  A    between atoms: _48  and  _49
REMARK   25  A    between atoms: _53  and  _55
REMARK   26  A    between atoms: _55  and  _56
REMARK   27  A    between atoms: _55  and  _58
REMARK   28  A    between atoms: _58  and  _59
REMARK   29  A    between atoms: _59  and  _60
REMARK   30  A    between atoms: _62  and  _64
REMARK   31  A    between atoms: _64  and  _65
REMARK   32  A    between atoms: _64  and  _67
REMARK   33  A    between atoms: _67  and  _68
REMARK   34  A    between atoms: _73  and  _75
REMARK   35  A    between atoms: _75  and  _76
REMARK   36  A    between atoms: _75  and  _78
REMARK   37  A    between atoms: _78  and  _79
REMARK   38  A    between atoms: _85  and  _87
REMARK   39  A    between atoms: _87  and  _88
REMARK   40  A    between atoms: _91  and  _93
REMARK   41  A    between atoms: _93  and  _94
REMARK   42  A    between atoms: _93  and  _96
REMARK   43  A    between atoms: _96  and  _97
REMARK   44  A    between atoms: _103  and  _105
REMARK   45  A    between atoms: _105  and  _106
REMARK   46  A    between atoms: _105  and  _108
REMARK   47  A    between atoms: _108  and  _109
REMARK   48  A    between atoms: _112  and  _114
REMARK   49  A    between atoms: _114  and  _115
REMARK   50  A    between atoms: _114  and  _117
REMARK   51  A    between atoms: _117  and  _118
REMARK   52  A    between atoms: _118  and  _119
REMARK   53  A    between atoms: _121  and  _123
REMARK   54  A    between atoms: _123  and  _124
REMARK   55  A    between atoms: _123  and  _126
REMARK   56  A    between atoms: _126  and  _127
REMARK   57  A    between atoms: _127  and  _128
REMARK   58  A    between atoms: _128  and  _129
REMARK   59  A    between atoms: _129  and  _130
REMARK   60  A    between atoms: _134  and  _136
REMARK   61  A    between atoms: _136  and  _137
REMARK   62  A    between atoms: _136  and  _139
REMARK   63  A    between atoms: _139  and  _140
REMARK   64  A    between atoms: _143  and  _145
REMARK   65  A    between atoms: _145  and  _146
REMARK   66  A    between atoms: _145  and  _148
REMARK   67  A    between atoms: _148  and  _149
REMARK   68  A    between atoms: _152  and  _154
REMARK   69  A    between atoms: _154  and  _155
REMARK   70  A    between atoms: _154  and  _157
REMARK   71  A    between atoms: _160  and  _162
REMARK   72  A    between atoms: _162  and  _163
REMARK   73  A    between atoms: _162  and  _165
REMARK   74  A    between atoms: _165  and  _166
REMARK   75  A    between atoms: _166  and  _167
REMARK   76  A    between atoms: _167  and  _168
REMARK   77  A    between atoms: _168  and  _169
REMARK   78  A    between atoms: _173  and  _175
REMARK   79  A    between atoms: _175  and  _176
REMARK   80  A    between atoms: _175  and  _178
REMARK   81  A    between atoms: _178  and  _179
REMARK   82  A    between atoms: _182  and  _184
REMARK   83  A    between atoms: _184  and  _185
REMARK   84  A    between atoms: _184  and  _187
REMARK   85  A    between atoms: _187  and  _188
REMARK   86  A    between atoms: _191  and  _193
REMARK   87  A    between atoms: _193  and  _194
REMARK   88  A    between atoms: _193  and  _196
REMARK   89  A    between atoms: _196  and  _197
REMARK   90  A    between atoms: _202  and  _204
REMARK   91  A    between atoms: _204  and  _205
REMARK   92  A    between atoms: _204  and  _207
REMARK   93  A    between atoms: _207  and  _208
REMARK   94  A    between atoms: _210  and  _212
REMARK   95  A    between atoms: _212  and  _213
REMARK   96  A    between atoms: _212  and  _215
REMARK   97  A    between atoms: _215  and  _216
REMARK   98  A    between atoms: _216  and  _217
REMARK   99  A    between atoms: _222  and  _224
REMARK  100  A    between atoms: _224  and  _225
REMARK  101  A    between atoms: _224  and  _227
REMARK  102  A    between atoms: _230  and  _232
REMARK  103  A    between atoms: _232  and  _233
REMARK  104  A    between atoms: _232  and  _235
REMARK  105  A    between atoms: _238  and  _240
REMARK  106  A    between atoms: _240  and  _241
REMARK  107  A    between atoms: _243  and  _245
REMARK  108  A    between atoms: _245  and  _246
REMARK  109  A    between atoms: _249  and  _251
REMARK  110  A    between atoms: _251  and  _252
REMARK  111  A    between atoms: _251  and  _254
REMARK  112  A    between atoms: _254  and  _255
REMARK  113  A    between atoms: _260  and  _262
REMARK  114  A    between atoms: _262  and  _263
REMARK  115  A    between atoms: _262  and  _265
REMARK  116  A    between atoms: _265  and  _266
REMARK  117  A    between atoms: _268  and  _270
REMARK  118  A    between atoms: _270  and  _271
REMARK  119  A    between atoms: _270  and  _273
REMARK  120  A    between atoms: _273  and  _274
REMARK  121  A    between atoms: _277  and  _279
REMARK  122  A    between atoms: _279  and  _280
REMARK  123  A    between atoms: _279  and  _282
REMARK  124  A    between atoms: _282  and  _283
REMARK  125  A    between atoms: _286  and  _287
REMARK  126  A    between atoms: _292  and  _294
REMARK  127  A    between atoms: _294  and  _295
REMARK  128  A    between atoms: _297  and  _299
REMARK  129  A    between atoms: _299  and  _300
REMARK  130  A    between atoms: _299  and  _302
REMARK  131  A    between atoms: _302  and  _303
REMARK  132  A    between atoms: _306  and  _308
REMARK  133  A    between atoms: _308  and  _309
REMARK  134  A    between atoms: _311  and  _313
REMARK  135  A    between atoms: _313  and  _314
REMARK  136  A    between atoms: _317  and  _319
REMARK  137  A    between atoms: _319  and  _320
REMARK  138  A    between atoms: _319  and  _322
REMARK  139  A    between atoms: _322  and  _323
REMARK  140  A    between atoms: _323  and  _324
REMARK  141  A    between atoms: _329  and  _331
REMARK  142  A    between atoms: _331  and  _332
REMARK  143  A    between atoms: _331  and  _334
REMARK  144  A    between atoms: _334  and  _335
REMARK  145  A    between atoms: _340  and  _342
REMARK  146  A    between atoms: _342  and  _343
REMARK  147  A    between atoms: _345  and  _347
REMARK  148  A    between atoms: _347  and  _348
REMARK  149  A    between atoms: _347  and  _350
REMARK  150  A    between atoms: _350  and  _351
REMARK  151  A    between atoms: _356  and  _358
REMARK  152  A    between atoms: _358  and  _359
REMARK  153  A    between atoms: _358  and  _361
REMARK  154  A    between atoms: _361  and  _362
REMARK  155  A    between atoms: _365  and  _367
REMARK  156  A    between atoms: _367  and  _368
REMARK  157  A    between atoms: _370  and  _372
REMARK  158  A    between atoms: _372  and  _373
REMARK  159  A    between atoms: _372  and  _375
REMARK  160  A    between atoms: _375  and  _376
REMARK  161  A    between atoms: _376  and  _377
REMARK  162  A    between atoms: _377  and  _378
REMARK  163  A    between atoms: _387  and  _389
REMARK  164  A    between atoms: _389  and  _390
REMARK  165  A    between atoms: _393  and  _395
REMARK  166  A    between atoms: _395  and  _396
REMARK  167  A    between atoms: _395  and  _398
REMARK  168  A    between atoms: _398  and  _399
REMARK  169  A    between atoms: _402  and  _404
REMARK  170  A    between atoms: _404  and  _405
REMARK  171  A    between atoms: _404  and  _407
REMARK  172  A    between atoms: _407  and  _408
REMARK  173  A    between atoms: _411  and  _413
REMARK  174  A    between atoms: _413  and  _414
REMARK  175  A    between atoms: _413  and  _416
REMARK  176  A    between atoms: _416  and  _417
REMARK  177  A    between atoms: _417  and  _418
REMARK  178  A    between atoms: _418  and  _419
REMARK  179  A    between atoms: _419  and  _420
REMARK  180  A    between atoms: _424  and  _426
REMARK  181  A    between atoms: _426  and  _427
REMARK  182  A    between atoms: _426  and  _429
REMARK  183  A    between atoms: _429  and  _430
REMARK  184  A    between atoms: _435  and  _437
REMARK  185  A    between atoms: _437  and  _438
REMARK  186  A    between atoms: _437  and  _440
REMARK  187  A    between atoms: _440  and  _441
REMARK  188  A    between atoms: _444  and  _446
REMARK  189  A    between atoms: _446  and  _447
REMARK  190  A    between atoms: _446  and  _449
REMARK  191  A    between atoms: _449  and  _450
REMARK  192  A    between atoms: _453  and  _455
REMARK  193  A    between atoms: _455  and  _456
REMARK  194  A    between atoms: _458  and  _460
REMARK  195  A    between atoms: _460  and  _461
REMARK  196  A    between atoms: _460  and  _463
REMARK  197  A    between atoms: _463  and  _464
REMARK  198  A    between atoms: _469  and  _471
REMARK  199  A    between atoms: _471  and  _472
REMARK  200  A    between atoms: _471  and  _474
REMARK  201  A    between atoms: _474  and  _475
REMARK  202  A    between atoms: _478  and  _480
REMARK  203  A    between atoms: _480  and  _481
REMARK  204  A    between atoms: _480  and  _483
REMARK  205  A    between atoms: _486  and  _488
REMARK  206  A    between atoms: _488  and  _489
REMARK  207  A    between atoms: _488  and  _491
REMARK  208  A    between atoms: _491  and  _492
REMARK  209  A    between atoms: _497  and  _499
REMARK  210  A    between atoms: _499  and  _500
REMARK  211  A    between atoms: _499  and  _502
REMARK  212  A    between atoms: _502  and  _503
REMARK  213  A    between atoms: _508  and  _509
REMARK  214  A    between atoms: _511  and  _513
REMARK  215  A    between atoms: _513  and  _514
REMARK  216  A    between atoms: _513  and  _516
REMARK  217  A    between atoms: _516  and  _517
REMARK  218  A    between atoms: _517  and  _518
REMARK                            x       y       z     vdW  Elec       q    Type
REMARK                         _______ _______ _______ _____ _____    ______ ____
ROOT
ATOM      1  O   HOH     1      10.328 -37.061 -22.463  0.00  0.00    +0.000 OA
ENDROOT
TORSDOF 0
REMARK  Name = ../refined-set-2016/2q8z/2q8z_pocket.pdb
REMARK  218 active torsions:
REMARK  status: ('A' for Active; 'I' for Inactive)
REMARK    1  A    between atoms: _1  and  _3
REMARK    2  A    between atoms: _3  and  _4
REMARK    3  A    between atoms: _3  and  _6
REMARK    4  A    between atoms: _8  and  _10
REMARK    5  A    between atoms: _10  and  _11
REMARK    6  A    between atoms: _10  and  _13
REMARK    7  A    between atoms: _13  and  _14
REMARK    8  A    between atoms: _17  and  _19
REMARK    9  A    between atoms: _19  and  _20
REMARK   10  A    between atoms: _22  and  _24
REMARK   11  A    between atoms: _24  and  _25
REMARK   12  A    between atoms: _24  and  _27
REMARK   13  A    between atoms: _27  and  _28
REMARK   14  A    between atoms: _31  and  _33
REMARK   15  A    between atoms: _33  and  _34
REMARK   16  A    between atoms: _33  and  _36
REMARK   17  A    between atoms: _36  and  _37
REMARK   18  A    between atoms: _40  and  _42
REMARK   19  A    between atoms: _42  and  _43
REMARK   20  A    between atoms: _42  and  _45
REMARK   21  A    between atoms: _45  and  _46
REMARK   22  A    between atoms: _46  and  _47
REMARK   23  A    between atoms: _47  and  _48
REMARK   24  A    between atoms: _48  and  _49
REMARK   25  A    between atoms: _53  and  _55
REMARK   26  A    between atoms: _55  and  _56
REMARK   27  A    between atoms: _55  and  _58
REMARK   28  A    between atoms: _58  and  _59
REMARK   29  A    between atoms: _59  and  _60
REMARK   30  A    between atoms: _62  and  _64
REMARK   31  A    between atoms: _64  and  _65
REMARK   32  A    between atoms: _64  and  _67
REMARK   33  A    between atoms: _67  and  _68
REMARK   34  A    between atoms: _73  and  _75
REMARK   35  A    between atoms: _75  and  _76
REMARK   36  A    between atoms: _75  and  _78
REMARK   37  A    between atoms: _78  and  _79
REMARK   38  A    between atoms: _85  and  _87
REMARK   39  A    between atoms: _87  and  _88
REMARK   40  A    between atoms: _91  and  _93
REMARK   41  A    between atoms: _93  and  _94
REMARK   42  A    between atoms: _93  and  _96
REMARK   43  A    between atoms: _96  and  _97
REMARK   44  A    between atoms: _103  and  _105
REMARK   45  A    between atoms: _105  and  _106
REMARK   46  A    between atoms: _105  and  _108
REMARK   47  A    between atoms: _108  and  _109
REMARK   48  A    between atoms: _112  and  _114
REMARK   49  A    between atoms: _114  and  _115
REMARK   50  A    between atoms: _114  and  _117
REMARK   51  A    between atoms: _117  and  _118
REMARK   52  A    between atoms: _118  and  _119
REMARK   53  A    between atoms: _121  and  _123
REMARK   54  A    between atoms: _123  and  _124
REMARK   55  A    between atoms: _123  and  _126
REMARK   56  A    between atoms: _126  and  _127
REMARK   57  A    between atoms: _127  and  _128
REMARK   58  A    between atoms: _128  and  _129
REMARK   59  A    between atoms: _129  and  _130
REMARK   60  A    between atoms: _134  and  _136
REMARK   61  A    between atoms: _136  and  _137
REMARK   62  A    between atoms: _136  and  _139
REMARK   63  A    between atoms: _139  and  _140
REMARK   64  A    between atoms: _143  and  _145
REMARK   65  A    between atoms: _145  and  _146
REMARK   66  A    between atoms: _145  and  _148
REMARK   67  A    between atoms: _148  and  _149
REMARK   68  A    between atoms: _152  and  _154
REMARK   69  A    between atoms: _154  and  _155
REMARK   70  A    between atoms: _154  and  _157
REMARK   71  A    between atoms: _160  and  _162
REMARK   72  A    between atoms: _162  and  _163
REMARK   73  A    between atoms: _162  and  _165
REMARK   74  A    between atoms: _165  and  _166
REMARK   75  A    between atoms: _166  and  _167
REMARK   76  A    between atoms: _167  and  _168
REMARK   77  A    between atoms: _168  and  _169
REMARK   78  A    between atoms: _173  and  _175
REMARK   79  A    between atoms: _175  and  _176
REMARK   80  A    between atoms: _175  and  _178
REMARK   81  A    between atoms: _178  and  _179
REMARK   82  A    between atoms: _182  and  _184
REMARK   83  A    between atoms: _184  and  _185
REMARK   84  A    between atoms: _184  and  _187
REMARK   85  A    between atoms: _187  and  _188
REMARK   86  A    between atoms: _191  and  _193
REMARK   87  A    between atoms: _193  and  _194
REMARK   88  A    between atoms: _193  and  _196
REMARK   89  A    between atoms: _196  and  _197
REMARK   90  A    between atoms: _202  and  _204
REMARK   91  A    between atoms: _204  and  _205
REMARK   92  A    between atoms: _204  and  _207
REMARK   93  A    between atoms: _207  and  _208
REMARK   94  A    between atoms: _210  and  _212
REMARK   95  A    between atoms: _212  and  _213
REMARK   96  A    between atoms: _212  and  _215
REMARK   97  A    between atoms: _215  and  _216
REMARK   98  A    between atoms: _216  and  _217
REMARK   99  A    between atoms: _222  and  _224
REMARK  100  A    between atoms: _224  and  _225
REMARK  101  A    between atoms: _224  and  _227
REMARK  102  A    between atoms: _230  and  _232
REMARK  103  A    between atoms: _232  and  _233
REMARK  104  A    between atoms: _232  and  _235
REMARK  105  A    between atoms: _238  and  _240
REMARK  106  A    between atoms: _240  and  _241
REMARK  107  A    between atoms: _243  and  _245
REMARK  108  A    between atoms: _245  and  _246
REMARK  109  A    between atoms: _249  and  _251
REMARK  110  A    between atoms: _251  and  _252
REMARK  111  A    between atoms: _251  and  _254
REMARK  112  A    between atoms: _254  and  _255
REMARK  113  A    between atoms: _260  and  _262
REMARK  114  A    between atoms: _262  and  _263
REMARK  115  A    between atoms: _262  and  _265
REMARK  116  A    between atoms: _265  and  _266
REMARK  117  A    between atoms: _268  and  _270
REMARK  118  A    between atoms: _270  and  _271
REMARK  119  A    between atoms: _270  and  _273
REMARK  120  A    between atoms: _273  and  _274
REMARK  121  A    between atoms: _277  and  _279
REMARK  122  A    between atoms: _279  and  _280
REMARK  123  A    between atoms: _279  and  _282
REMARK  124  A    between atoms: _282  and  _283
REMARK  125  A    between atoms: _286  and  _287
REMARK  126  A    between atoms: _292  and  _294
REMARK  127  A    between atoms: _294  and  _295
REMARK  128  A    between atoms: _297  and  _299
REMARK  129  A    between atoms: _299  and  _300
REMARK  130  A    between atoms: _299  and  _302
REMARK  131  A    between atoms: _302  and  _303
REMARK  132  A    between atoms: _306  and  _308
REMARK  133  A    between atoms: _308  and  _309
REMARK  134  A    between atoms: _311  and  _313
REMARK  135  A    between atoms: _313  and  _314
REMARK  136  A    between atoms: _317  and  _319
REMARK  137  A    between atoms: _319  and  _320
REMARK  138  A    between atoms: _319  and  _322
REMARK  139  A    between atoms: _322  and  _323
REMARK  140  A    between atoms: _323  and  _324
REMARK  141  A    between atoms: _329  and  _331
REMARK  142  A    between atoms: _331  and  _332
REMARK  143  A    between atoms: _331  and  _334
REMARK  144  A    between atoms: _334  and  _335
REMARK  145  A    between atoms: _340  and  _342
REMARK  146  A    between atoms: _342  and  _343
REMARK  147  A    between atoms: _345  and  _347
REMARK  148  A    between atoms: _347  and  _348
REMARK  149  A    between atoms: _347  and  _350
REMARK  150  A    between atoms: _350  and  _351
REMARK  151  A    between atoms: _356  and  _358
REMARK  152  A    between atoms: _358  and  _359
REMARK  153  A    between atoms: _358  and  _361
REMARK  154  A    between atoms: _361  and  _362
REMARK  155  A    between atoms: _365  and  _367
REMARK  156  A    between atoms: _367  and  _368
REMARK  157  A    between atoms: _370  and  _372
REMARK  158  A    between atoms: _372  and  _373
REMARK  159  A    between atoms: _372  and  _375
REMARK  160  A    between atoms: _375  and  _376
REMARK  161  A    between atoms: _376  and  _377
REMARK  162  A    between atoms: _377  and  _378
REMARK  163  A    between atoms: _387  and  _389
REMARK  164  A    between atoms: _389  and  _390
REMARK  165  A    between atoms: _393  and  _395
REMARK  166  A    between atoms: _395  and  _396
REMARK  167  A    between atoms: _395  and  _398
REMARK  168  A    between atoms: _398  and  _399
REMARK  169  A    between atoms: _402  and  _404
REMARK  170  A    between atoms: _404  and  _405
REMARK  171  A    between atoms: _404  and  _407
REMARK  172  A    between atoms: _407  and  _408
REMARK  173  A    between atoms: _411  and  _413
REMARK  174  A    between atoms: _413  and  _414
REMARK  175  A    between atoms: _413  and  _416
REMARK  176  A    between atoms: _416  and  _417
REMARK  177  A    between atoms: _417  and  _418
REMARK  178  A    between atoms: _418  and  _419
REMARK  179  A    between atoms: _419  and  _420
REMARK  180  A    between atoms: _424  and  _426
REMARK  181  A    between atoms: _426  and  _427
REMARK  182  A    between atoms: _426  and  _429
REMARK  183  A    between atoms: _429  and  _430
REMARK  184  A    between atoms: _435  and  _437
REMARK  185  A    between atoms: _437  and  _438
REMARK  186  A    between atoms: _437  and  _440
REMARK  187  A    between atoms: _440  and  _441
REMARK  188  A    between atoms: _444  and  _446
REMARK  189  A    between atoms: _446  and  _447
REMARK  190  A    between atoms: _446  and  _449
REMARK  191  A    between atoms: _449  and  _450
REMARK  192  A    between atoms: _453  and  _455
REMARK  193  A    between atoms: _455  and  _456
REMARK  194  A    between atoms: _458  and  _460
REMARK  195  A    between atoms: _460  and  _461
REMARK  196  A    between atoms: _460  and  _463
REMARK  197  A    between atoms: _463  and  _464
REMARK  198  A    between atoms: _469  and  _471
REMARK  199  A    between atoms: _471  and  _472
REMARK  200  A    between atoms: _471  and  _474
REMARK  201  A    between atoms: _474  and  _475
REMARK  202  A    between atoms: _478  and  _480
REMARK  203  A    between atoms: _480  and  _481
REMARK  204  A    between atoms: _480  and  _483
REMARK  205  A    between atoms: _486  and  _488
REMARK  206  A    between atoms: _488  and  _489
REMARK  207  A    between atoms: _488  and  _491
REMARK  208  A    between atoms: _491  and  _492
REMARK  209  A    between atoms: _497  and  _499
REMARK  210  A    between atoms: _499  and  _500
REMARK  211  A    between atoms: _499  and  _502
REMARK  212  A    between atoms: _502  and  _503
REMARK  213  A    between atoms: _508  and  _509
REMARK  214  A    between atoms: _511  and  _513
REMARK  215  A    between atoms: _513  and  _514
REMARK  216  A    between atoms: _513  and  _516
REMARK  217  A    between atoms: _516  and  _517
REMARK  218  A    between atoms: _517  and  _518
REMARK                            x       y       z     vdW  Elec       q    Type
REMARK                         _______ _______ _______ _____ _____    ______ ____
ROOT
ATOM      1  O   HOH     1       7.464 -22.558 -26.118  0.00  0.00    +0.000 OA
ENDROOT
TORSDOF 0
REMARK  Name = ../refined-set-2016/2q8z/2q8z_pocket.pdb
REMARK  218 active torsions:
REMARK  status: ('A' for Active; 'I' for Inactive)
REMARK    1  A    between atoms: _1  and  _3
REMARK    2  A    between atoms: _3  and  _4
REMARK    3  A    between atoms: _3  and  _6
REMARK    4  A    between atoms: _8  and  _10
REMARK    5  A    between atoms: _10  and  _11
REMARK    6  A    between atoms: _10  and  _13
REMARK    7  A    between atoms: _13  and  _14
REMARK    8  A    between atoms: _17  and  _19
REMARK    9  A    between atoms: _19  and  _20
REMARK   10  A    between atoms: _22  and  _24
REMARK   11  A    between atoms: _24  and  _25
REMARK   12  A    between atoms: _24  and  _27
REMARK   13  A    between atoms: _27  and  _28
REMARK   14  A    between atoms: _31  and  _33
REMARK   15  A    between atoms: _33  and  _34
REMARK   16  A    between atoms: _33  and  _36
REMARK   17  A    between atoms: _36  and  _37
REMARK   18  A    between atoms: _40  and  _42
REMARK   19  A    between atoms: _42  and  _43
REMARK   20  A    between atoms: _42  and  _45
REMARK   21  A    between atoms: _45  and  _46
REMARK   22  A    between atoms: _46  and  _47
REMARK   23  A    between atoms: _47  and  _48
REMARK   24  A    between atoms: _48  and  _49
REMARK   25  A    between atoms: _53  and  _55
REMARK   26  A    between atoms: _55  and  _56
REMARK   27  A    between atoms: _55  and  _58
REMARK   28  A    between atoms: _58  and  _59
REMARK   29  A    between atoms: _59  and  _60
REMARK   30  A    between atoms: _62  and  _64
REMARK   31  A    between atoms: _64  and  _65
REMARK   32  A    between atoms: _64  and  _67
REMARK   33  A    between atoms: _67  and  _68
REMARK   34  A    between atoms: _73  and  _75
REMARK   35  A    between atoms: _75  and  _76
REMARK   36  A    between atoms: _75  and  _78
REMARK   37  A    between atoms: _78  and  _79
REMARK   38  A    between atoms: _85  and  _87
REMARK   39  A    between atoms: _87  and  _88
REMARK   40  A    between atoms: _91  and  _93
REMARK   41  A    between atoms: _93  and  _94
REMARK   42  A    between atoms: _93  and  _96
REMARK   43  A    between atoms: _96  and  _97
REMARK   44  A    between atoms: _103  and  _105
REMARK   45  A    between atoms: _105  and  _106
REMARK   46  A    between atoms: _105  and  _108
REMARK   47  A    between atoms: _108  and  _109
REMARK   48  A    between atoms: _112  and  _114
REMARK   49  A    between atoms: _114  and  _115
REMARK   50  A    between atoms: _114  and  _117
REMARK   51  A    between atoms: _117  and  _118
REMARK   52  A    between atoms: _118  and  _119
REMARK   53  A    between atoms: _121  and  _123
REMARK   54  A    between atoms: _123  and  _124
REMARK   55  A    between atoms: _123  and  _126
REMARK   56  A    between atoms: _126  and  _127
REMARK   57  A    between atoms: _127  and  _128
REMARK   58  A    between atoms: _128  and  _129
REMARK   59  A    between atoms: _129  and  _130
REMARK   60  A    between atoms: _134  and  _136
REMARK   61  A    between atoms: _136  and  _137
REMARK   62  A    between atoms: _136  and  _139
REMARK   63  A    between atoms: _139  and  _140
REMARK   64  A    between atoms: _143  and  _145
REMARK   65  A    between atoms: _145  and  _146
REMARK   66  A    between atoms: _145  and  _148
REMARK   67  A    between atoms: _148  and  _149
REMARK   68  A    between atoms: _152  and  _154
REMARK   69  A    between atoms: _154  and  _155
REMARK   70  A    between atoms: _154  and  _157
REMARK   71  A    between atoms: _160  and  _162
REMARK   72  A    between atoms: _162  and  _163
REMARK   73  A    between atoms: _162  and  _165
REMARK   74  A    between atoms: _165  and  _166
REMARK   75  A    between atoms: _166  and  _167
REMARK   76  A    between atoms: _167  and  _168
REMARK   77  A    between atoms: _168  and  _169
REMARK   78  A    between atoms: _173  and  _175
REMARK   79  A    between atoms: _175  and  _176
REMARK   80  A    between atoms: _175  and  _178
REMARK   81  A    between atoms: _178  and  _179
REMARK   82  A    between atoms: _182  and  _184
REMARK   83  A    between atoms: _184  and  _185
REMARK   84  A    between atoms: _184  and  _187
REMARK   85  A    between atoms: _187  and  _188
REMARK   86  A    between atoms: _191  and  _193
REMARK   87  A    between atoms: _193  and  _194
REMARK   88  A    between atoms: _193  and  _196
REMARK   89  A    between atoms: _196  and  _197
REMARK   90  A    between atoms: _202  and  _204
REMARK   91  A    between atoms: _204  and  _205
REMARK   92  A    between atoms: _204  and  _207
REMARK   93  A    between atoms: _207  and  _208
REMARK   94  A    between atoms: _210  and  _212
REMARK   95  A    between atoms: _212  and  _213
REMARK   96  A    between atoms: _212  and  _215
REMARK   97  A    between atoms: _215  and  _216
REMARK   98  A    between atoms: _216  and  _217
REMARK   99  A    between atoms: _222  and  _224
REMARK  100  A    between atoms: _224  and  _225
REMARK  101  A    between atoms: _224  and  _227
REMARK  102  A    between atoms: _230  and  _232
REMARK  103  A    between atoms: _232  and  _233
REMARK  104  A    between atoms: _232  and  _235
REMARK  105  A    between atoms: _238  and  _240
REMARK  106  A    between atoms: _240  and  _241
REMARK  107  A    between atoms: _243  and  _245
REMARK  108  A    between atoms: _245  and  _246
REMARK  109  A    between atoms: _249  and  _251
REMARK  110  A    between atoms: _251  and  _252
REMARK  111  A    between atoms: _251  and  _254
REMARK  112  A    between atoms: _254  and  _255
REMARK  113  A    between atoms: _260  and  _262
REMARK  114  A    between atoms: _262  and  _263
REMARK  115  A    between atoms: _262  and  _265
REMARK  116  A    between atoms: _265  and  _266
REMARK  117  A    between atoms: _268  and  _270
REMARK  118  A    between atoms: _270  and  _271
REMARK  119  A    between atoms: _270  and  _273
REMARK  120  A    between atoms: _273  and  _274
REMARK  121  A    between atoms: _277  and  _279
REMARK  122  A    between atoms: _279  and  _280
REMARK  123  A    between atoms: _279  and  _282
REMARK  124  A    between atoms: _282  and  _283
REMARK  125  A    between atoms: _286  and  _287
REMARK  126  A    between atoms: _292  and  _294
REMARK  127  A    between atoms: _294  and  _295
REMARK  128  A    between atoms: _297  and  _299
REMARK  129  A    between atoms: _299  and  _300
REMARK  130  A    between atoms: _299  and  _302
REMARK  131  A    between atoms: _302  and  _303
REMARK  132  A    between atoms: _306  and  _308
REMARK  133  A    between atoms: _308  and  _309
REMARK  134  A    between atoms: _311  and  _313
REMARK  135  A    between atoms: _313  and  _314
REMARK  136  A    between atoms: _317  and  _319
REMARK  137  A    between atoms: _319  and  _320
REMARK  138  A    between atoms: _319  and  _322
REMARK  139  A    between atoms: _322  and  _323
REMARK  140  A    between atoms: _323  and  _324
REMARK  141  A    between atoms: _329  and  _331
REMARK  142  A    between atoms: _331  and  _332
REMARK  143  A    between atoms: _331  and  _334
REMARK  144  A    between atoms: _334  and  _335
REMARK  145  A    between atoms: _340  and  _342
REMARK  146  A    between atoms: _342  and  _343
REMARK  147  A    between atoms: _345  and  _347
REMARK  148  A    between atoms: _347  and  _348
REMARK  149  A    between atoms: _347  and  _350
REMARK  150  A    between atoms: _350  and  _351
REMARK  151  A    between atoms: _356  and  _358
REMARK  152  A    between atoms: _358  and  _359
REMARK  153  A    between atoms: _358  and  _361
REMARK  154  A    between atoms: _361  and  _362
REMARK  155  A    between atoms: _365  and  _367
REMARK  156  A    between atoms: _367  and  _368
REMARK  157  A    between atoms: _370  and  _372
REMARK  158  A    between atoms: _372  and  _373
REMARK  159  A    between atoms: _372  and  _375
REMARK  160  A    between atoms: _375  and  _376
REMARK  161  A    between atoms: _376  and  _377
REMARK  162  A    between atoms: _377  and  _378
REMARK  163  A    between atoms: _387  and  _389
REMARK  164  A    between atoms: _389  and  _390
REMARK  165  A    between atoms: _393  and  _395
REMARK  166  A    between atoms: _395  and  _396
REMARK  167  A    between atoms: _395  and  _398
REMARK  168  A    between atoms: _398  and  _399
REMARK  169  A    between atoms: _402  and  _404
REMARK  170  A    between atoms: _404  and  _405
REMARK  171  A    between atoms: _404  and  _407
REMARK  172  A    between atoms: _407  and  _408
REMARK  173  A    between atoms: _411  and  _413
REMARK  174  A    between atoms: _413  and  _414
REMARK  175  A    between atoms: _413  and  _416
REMARK  176  A    between atoms: _416  and  _417
REMARK  177  A    between atoms: _417  and  _418
REMARK  178  A    between atoms: _418  and  _419
REMARK  179  A    between atoms: _419  and  _420
REMARK  180  A    between atoms: _424  and  _426
REMARK  181  A    between atoms: _426  and  _427
REMARK  182  A    between atoms: _426  and  _429
REMARK  183  A    between atoms: _429  and  _430
REMARK  184  A    between atoms: _435  and  _437
REMARK  185  A    between atoms: _437  and  _438
REMARK  186  A    between atoms: _437  and  _440
REMARK  187  A    between atoms: _440  and  _441
REMARK  188  A    between atoms: _444  and  _446
REMARK  189  A    between atoms: _446  and  _447
REMARK  190  A    between atoms: _446  and  _449
REMARK  191  A    between atoms: _449  and  _450
REMARK  192  A    between atoms: _453  and  _455
REMARK  193  A    between atoms: _455  and  _456
REMARK  194  A    between atoms: _458  and  _460
REMARK  195  A    between atoms: _460  and  _461
REMARK  196  A    between atoms: _460  and  _463
REMARK  197  A    between atoms: _463  and  _464
REMARK  198  A    between atoms: _469  and  _471
REMARK  199  A    between atoms: _471  and  _472
REMARK  200  A    between atoms: _471  and  _474
REMARK  201  A    between atoms: _474  and  _475
REMARK  202  A    between atoms: _478  and  _480
REMARK  203  A    between atoms: _480  and  _481
REMARK  204  A    between atoms: _480  and  _483
REMARK  205  A    between atoms: _486  and  _488
REMARK  206  A    between atoms: _488  and  _489
REMARK  207  A    between atoms: _488  and  _491
REMARK  208  A    between atoms: _491  and  _492
REMARK  209  A    between atoms: _497  and  _499
REMARK  210  A    between atoms: _499  and  _500
REMARK  211  A    between atoms: _499  and  _502
REMARK  212  A    between atoms: _502  and  _503
REMARK  213  A    between atoms: _508  and  _509
REMARK  214  A    between atoms: _511  and  _513
REMARK  215  A    between atoms: _513  and  _514
REMARK  216  A    between atoms: _513  and  _516
REMARK  217  A    between atoms: _516  and  _517
REMARK  218  A    between atoms: _517  and  _518
REMARK                            x       y       z     vdW  Elec       q    Type
REMARK                         _______ _______ _______ _____ _____    ______ ____
ROOT
ATOM      1  O   HOH     1       6.559 -29.519 -15.811  0.00  0.00    +0.000 OA
ENDROOT
TORSDOF 0
REMARK  Name = ../refined-set-2016/2q8z/2q8z_pocket.pdb
REMARK  218 active torsions:
REMARK  status: ('A' for Active; 'I' for Inactive)
REMARK    1  A    between atoms: _1  and  _3
REMARK    2  A    between atoms: _3  and  _4
REMARK    3  A    between atoms: _3  and  _6
REMARK    4  A    between atoms: _8  and  _10
REMARK    5  A    between atoms: _10  and  _11
REMARK    6  A    between atoms: _10  and  _13
REMARK    7  A    between atoms: _13  and  _14
REMARK    8  A    between atoms: _17  and  _19
REMARK    9  A    between atoms: _19  and  _20
REMARK   10  A    between atoms: _22  and  _24
REMARK   11  A    between atoms: _24  and  _25
REMARK   12  A    between atoms: _24  and  _27
REMARK   13  A    between atoms: _27  and  _28
REMARK   14  A    between atoms: _31  and  _33
REMARK   15  A    between atoms: _33  and  _34
REMARK   16  A    between atoms: _33  and  _36
REMARK   17  A    between atoms: _36  and  _37
REMARK   18  A    between atoms: _40  and  _42
REMARK   19  A    between atoms: _42  and  _43
REMARK   20  A    between atoms: _42  and  _45
REMARK   21  A    between atoms: _45  and  _46
REMARK   22  A    between atoms: _46  and  _47
REMARK   23  A    between atoms: _47  and  _48
REMARK   24  A    between atoms: _48  and  _49
REMARK   25  A    between atoms: _53  and  _55
REMARK   26  A    between atoms: _55  and  _56
REMARK   27  A    between atoms: _55  and  _58
REMARK   28  A    between atoms: _58  and  _59
REMARK   29  A    between atoms: _59  and  _60
REMARK   30  A    between atoms: _62  and  _64
REMARK   31  A    between atoms: _64  and  _65
REMARK   32  A    between atoms: _64  and  _67
REMARK   33  A    between atoms: _67  and  _68
REMARK   34  A    between atoms: _73  and  _75
REMARK   35  A    between atoms: _75  and  _76
REMARK   36  A    between atoms: _75  and  _78
REMARK   37  A    between atoms: _78  and  _79
REMARK   38  A    between atoms: _85  and  _87
REMARK   39  A    between atoms: _87  and  _88
REMARK   40  A    between atoms: _91  and  _93
REMARK   41  A    between atoms: _93  and  _94
REMARK   42  A    between atoms: _93  and  _96
REMARK   43  A    between atoms: _96  and  _97
REMARK   44  A    between atoms: _103  and  _105
REMARK   45  A    between atoms: _105  and  _106
REMARK   46  A    between atoms: _105  and  _108
REMARK   47  A    between atoms: _108  and  _109
REMARK   48  A    between atoms: _112  and  _114
REMARK   49  A    between atoms: _114  and  _115
REMARK   50  A    between atoms: _114  and  _117
REMARK   51  A    between atoms: _117  and  _118
REMARK   52  A    between atoms: _118  and  _119
REMARK   53  A    between atoms: _121  and  _123
REMARK   54  A    between atoms: _123  and  _124
REMARK   55  A    between atoms: _123  and  _126
REMARK   56  A    between atoms: _126  and  _127
REMARK   57  A    between atoms: _127  and  _128
REMARK   58  A    between atoms: _128  and  _129
REMARK   59  A    between atoms: _129  and  _130
REMARK   60  A    between atoms: _134  and  _136
REMARK   61  A    between atoms: _136  and  _137
REMARK   62  A    between atoms: _136  and  _139
REMARK   63  A    between atoms: _139  and  _140
REMARK   64  A    between atoms: _143  and  _145
REMARK   65  A    between atoms: _145  and  _146
REMARK   66  A    between atoms: _145  and  _148
REMARK   67  A    between atoms: _148  and  _149
REMARK   68  A    between atoms: _152  and  _154
REMARK   69  A    between atoms: _154  and  _155
REMARK   70  A    between atoms: _154  and  _157
REMARK   71  A    between atoms: _160  and  _162
REMARK   72  A    between atoms: _162  and  _163
REMARK   73  A    between atoms: _162  and  _165
REMARK   74  A    between atoms: _165  and  _166
REMARK   75  A    between atoms: _166  and  _167
REMARK   76  A    between atoms: _167  and  _168
REMARK   77  A    between atoms: _168  and  _169
REMARK   78  A    between atoms: _173  and  _175
REMARK   79  A    between atoms: _175  and  _176
REMARK   80  A    between atoms: _175  and  _178
REMARK   81  A    between atoms: _178  and  _179
REMARK   82  A    between atoms: _182  and  _184
REMARK   83  A    between atoms: _184  and  _185
REMARK   84  A    between atoms: _184  and  _187
REMARK   85  A    between atoms: _187  and  _188
REMARK   86  A    between atoms: _191  and  _193
REMARK   87  A    between atoms: _193  and  _194
REMARK   88  A    between atoms: _193  and  _196
REMARK   89  A    between atoms: _196  and  _197
REMARK   90  A    between atoms: _202  and  _204
REMARK   91  A    between atoms: _204  and  _205
REMARK   92  A    between atoms: _204  and  _207
REMARK   93  A    between atoms: _207  and  _208
REMARK   94  A    between atoms: _210  and  _212
REMARK   95  A    between atoms: _212  and  _213
REMARK   96  A    between atoms: _212  and  _215
REMARK   97  A    between atoms: _215  and  _216
REMARK   98  A    between atoms: _216  and  _217
REMARK   99  A    between atoms: _222  and  _224
REMARK  100  A    between atoms: _224  and  _225
REMARK  101  A    between atoms: _224  and  _227
REMARK  102  A    between atoms: _230  and  _232
REMARK  103  A    between atoms: _232  and  _233
REMARK  104  A    between atoms: _232  and  _235
REMARK  105  A    between atoms: _238  and  _240
REMARK  106  A    between atoms: _240  and  _241
REMARK  107  A    between atoms: _243  and  _245
REMARK  108  A    between atoms: _245  and  _246
REMARK  109  A    between atoms: _249  and  _251
REMARK  110  A    between atoms: _251  and  _252
REMARK  111  A    between atoms: _251  and  _254
REMARK  112  A    between atoms: _254  and  _255
REMARK  113  A    between atoms: _260  and  _262
REMARK  114  A    between atoms: _262  and  _263
REMARK  115  A    between atoms: _262  and  _265
REMARK  116  A    between atoms: _265  and  _266
REMARK  117  A    between atoms: _268  and  _270
REMARK  118  A    between atoms: _270  and  _271
REMARK  119  A    between atoms: _270  and  _273
REMARK  120  A    between atoms: _273  and  _274
REMARK  121  A    between atoms: _277  and  _279
REMARK  122  A    between atoms: _279  and  _280
REMARK  123  A    between atoms: _279  and  _282
REMARK  124  A    between atoms: _282  and  _283
REMARK  125  A    between atoms: _286  and  _287
REMARK  126  A    between atoms: _292  and  _294
REMARK  127  A    between atoms: _294  and  _295
REMARK  128  A    between atoms: _297  and  _299
REMARK  129  A    between atoms: _299  and  _300
REMARK  130  A    between atoms: _299  and  _302
REMARK  131  A    between atoms: _302  and  _303
REMARK  132  A    between atoms: _306  and  _308
REMARK  133  A    between atoms: _308  and  _309
REMARK  134  A    between atoms: _311  and  _313
REMARK  135  A    between atoms: _313  and  _314
REMARK  136  A    between atoms: _317  and  _319
REMARK  137  A    between atoms: _319  and  _320
REMARK  138  A    between atoms: _319  and  _322
REMARK  139  A    between atoms: _322  and  _323
REMARK  140  A    between atoms: _323  and  _324
REMARK  141  A    between atoms: _329  and  _331
REMARK  142  A    between atoms: _331  and  _332
REMARK  143  A    between atoms: _331  and  _334
REMARK  144  A    between atoms: _334  and  _335
REMARK  145  A    between atoms: _340  and  _342
REMARK  146  A    between atoms: _342  and  _343
REMARK  147  A    between atoms: _345  and  _347
REMARK  148  A    between atoms: _347  and  _348
REMARK  149  A    between atoms: _347  and  _350
REMARK  150  A    between atoms: _350  and  _351
REMARK  151  A    between atoms: _356  and  _358
REMARK  152  A    between atoms: _358  and  _359
REMARK  153  A    between atoms: _358  and  _361
REMARK  154  A    between atoms: _361  and  _362
REMARK  155  A    between atoms: _365  and  _367
REMARK  156  A    between atoms: _367  and  _368
REMARK  157  A    between atoms: _370  and  _372
REMARK  158  A    between atoms: _372  and  _373
REMARK  159  A    between atoms: _372  and  _375
REMARK  160  A    between atoms: _375  and  _376
REMARK  161  A    between atoms: _376  and  _377
REMARK  162  A    between atoms: _377  and  _378
REMARK  163  A    between atoms: _387  and  _389
REMARK  164  A    between atoms: _389  and  _390
REMARK  165  A    between atoms: _393  and  _395
REMARK  166  A    between atoms: _395  and  _396
REMARK  167  A    between atoms: _395  and  _398
REMARK  168  A    between atoms: _398  and  _399
REMARK  169  A    between atoms: _402  and  _404
REMARK  170  A    between atoms: _404  and  _405
REMARK  171  A    between atoms: _404  and  _407
REMARK  172  A    between atoms: _407  and  _408
REMARK  173  A    between atoms: _411  and  _413
REMARK  174  A    between atoms: _413  and  _414
REMARK  175  A    between atoms: _413  and  _416
REMARK  176  A    between atoms: _416  and  _417
REMARK  177  A    between atoms: _417  and  _418
REMARK  178  A    between atoms: _418  and  _419
REMARK  179  A    between atoms: _419  and  _420
REMARK  180  A    between atoms: _424  and  _426
REMARK  181  A    between atoms: _426  and  _427
REMARK  182  A    between atoms: _426  and  _429
REMARK  183  A    between atoms: _429  and  _430
REMARK  184  A    between atoms: _435  and  _437
REMARK  185  A    between atoms: _437  and  _438
REMARK  186  A    between atoms: _437  and  _440
REMARK  187  A    between atoms: _440  and  _441
REMARK  188  A    between atoms: _444  and  _446
REMARK  189  A    between atoms: _446  and  _447
REMARK  190  A    between atoms: _446  and  _449
REMARK  191  A    between atoms: _449  and  _450
REMARK  192  A    between atoms: _453  and  _455
REMARK  193  A    between atoms: _455  and  _456
REMARK  194  A    between atoms: _458  and  _460
REMARK  195  A    between atoms: _460  and  _461
REMARK  196  A    between atoms: _460  and  _463
REMARK  197  A    between atoms: _463  and  _464
REMARK  198  A    between atoms: _469  and  _471
REMARK  199  A    between atoms: _471  and  _472
REMARK  200  A    between atoms: _471  and  _474
REMARK  201  A    between atoms: _474  and  _475
REMARK  202  A    between atoms: _478  and  _480
REMARK  203  A    between atoms: _480  and  _481
REMARK  204  A    between atoms: _480  and  _483
REMARK  205  A    between atoms: _486  and  _488
REMARK  206  A    between atoms: _488  and  _489
REMARK  207  A    between atoms: _488  and  _491
REMARK  208  A    between atoms: _491  and  _492
REMARK  209  A    between atoms: _497  and  _499
REMARK  210  A    between atoms: _499  and  _500
REMARK  211  A    between atoms: _499  and  _502
REMARK  212  A    between atoms: _502  and  _503
REMARK  213  A    between atoms: _508  and  _509
REMARK  214  A    between atoms: _511  and  _513
REMARK  215  A    between atoms: _513  and  _514
REMARK  216  A    between atoms: _513  and  _516
REMARK  217  A    between atoms: _516  and  _517
REMARK  218  A    between atoms: _517  and  _518
REMARK                            x       y       z     vdW  Elec       q    Type
REMARK                         _______ _______ _______ _____ _____    ______ ____
ROOT
ATOM      1  O   HOH     1       8.026 -31.634 -17.404  0.00  0.00    +0.000 OA
ENDROOT
TORSDOF 0
REMARK  Name = ../refined-set-2016/2q8z/2q8z_pocket.pdb
REMARK  218 active torsions:
REMARK  status: ('A' for Active; 'I' for Inactive)
REMARK    1  A    between atoms: _1  and  _3
REMARK    2  A    between atoms: _3  and  _4
REMARK    3  A    between atoms: _3  and  _6
REMARK    4  A    between atoms: _8  and  _10
REMARK    5  A    between atoms: _10  and  _11
REMARK    6  A    between atoms: _10  and  _13
REMARK    7  A    between atoms: _13  and  _14
REMARK    8  A    between atoms: _17  and  _19
REMARK    9  A    between atoms: _19  and  _20
REMARK   10  A    between atoms: _22  and  _24
REMARK   11  A    between atoms: _24  and  _25
REMARK   12  A    between atoms: _24  and  _27
REMARK   13  A    between atoms: _27  and  _28
REMARK   14  A    between atoms: _31  and  _33
REMARK   15  A    between atoms: _33  and  _34
REMARK   16  A    between atoms: _33  and  _36
REMARK   17  A    between atoms: _36  and  _37
REMARK   18  A    between atoms: _40  and  _42
REMARK   19  A    between atoms: _42  and  _43
REMARK   20  A    between atoms: _42  and  _45
REMARK   21  A    between atoms: _45  and  _46
REMARK   22  A    between atoms: _46  and  _47
REMARK   23  A    between atoms: _47  and  _48
REMARK   24  A    between atoms: _48  and  _49
REMARK   25  A    between atoms: _53  and  _55
REMARK   26  A    between atoms: _55  and  _56
REMARK   27  A    between atoms: _55  and  _58
REMARK   28  A    between atoms: _58  and  _59
REMARK   29  A    between atoms: _59  and  _60
REMARK   30  A    between atoms: _62  and  _64
REMARK   31  A    between atoms: _64  and  _65
REMARK   32  A    between atoms: _64  and  _67
REMARK   33  A    between atoms: _67  and  _68
REMARK   34  A    between atoms: _73  and  _75
REMARK   35  A    between atoms: _75  and  _76
REMARK   36  A    between atoms: _75  and  _78
REMARK   37  A    between atoms: _78  and  _79
REMARK   38  A    between atoms: _85  and  _87
REMARK   39  A    between atoms: _87  and  _88
REMARK   40  A    between atoms: _91  and  _93
REMARK   41  A    between atoms: _93  and  _94
REMARK   42  A    between atoms: _93  and  _96
REMARK   43  A    between atoms: _96  and  _97
REMARK   44  A    between atoms: _103  and  _105
REMARK   45  A    between atoms: _105  and  _106
REMARK   46  A    between atoms: _105  and  _108
REMARK   47  A    between atoms: _108  and  _109
REMARK   48  A    between atoms: _112  and  _114
REMARK   49  A    between atoms: _114  and  _115
REMARK   50  A    between atoms: _114  and  _117
REMARK   51  A    between atoms: _117  and  _118
REMARK   52  A    between atoms: _118  and  _119
REMARK   53  A    between atoms: _121  and  _123
REMARK   54  A    between atoms: _123  and  _124
REMARK   55  A    between atoms: _123  and  _126
REMARK   56  A    between atoms: _126  and  _127
REMARK   57  A    between atoms: _127  and  _128
REMARK   58  A    between atoms: _128  and  _129
REMARK   59  A    between atoms: _129  and  _130
REMARK   60  A    between atoms: _134  and  _136
REMARK   61  A    between atoms: _136  and  _137
REMARK   62  A    between atoms: _136  and  _139
REMARK   63  A    between atoms: _139  and  _140
REMARK   64  A    between atoms: _143  and  _145
REMARK   65  A    between atoms: _145  and  _146
REMARK   66  A    between atoms: _145  and  _148
REMARK   67  A    between atoms: _148  and  _149
REMARK   68  A    between atoms: _152  and  _154
REMARK   69  A    between atoms: _154  and  _155
REMARK   70  A    between atoms: _154  and  _157
REMARK   71  A    between atoms: _160  and  _162
REMARK   72  A    between atoms: _162  and  _163
REMARK   73  A    between atoms: _162  and  _165
REMARK   74  A    between atoms: _165  and  _166
REMARK   75  A    between atoms: _166  and  _167
REMARK   76  A    between atoms: _167  and  _168
REMARK   77  A    between atoms: _168  and  _169
REMARK   78  A    between atoms: _173  and  _175
REMARK   79  A    between atoms: _175  and  _176
REMARK   80  A    between atoms: _175  and  _178
REMARK   81  A    between atoms: _178  and  _179
REMARK   82  A    between atoms: _182  and  _184
REMARK   83  A    between atoms: _184  and  _185
REMARK   84  A    between atoms: _184  and  _187
REMARK   85  A    between atoms: _187  and  _188
REMARK   86  A    between atoms: _191  and  _193
REMARK   87  A    between atoms: _193  and  _194
REMARK   88  A    between atoms: _193  and  _196
REMARK   89  A    between atoms: _196  and  _197
REMARK   90  A    between atoms: _202  and  _204
REMARK   91  A    between atoms: _204  and  _205
REMARK   92  A    between atoms: _204  and  _207
REMARK   93  A    between atoms: _207  and  _208
REMARK   94  A    between atoms: _210  and  _212
REMARK   95  A    between atoms: _212  and  _213
REMARK   96  A    between atoms: _212  and  _215
REMARK   97  A    between atoms: _215  and  _216
REMARK   98  A    between atoms: _216  and  _217
REMARK   99  A    between atoms: _222  and  _224
REMARK  100  A    between atoms: _224  and  _225
REMARK  101  A    between atoms: _224  and  _227
REMARK  102  A    between atoms: _230  and  _232
REMARK  103  A    between atoms: _232  and  _233
REMARK  104  A    between atoms: _232  and  _235
REMARK  105  A    between atoms: _238  and  _240
REMARK  106  A    between atoms: _240  and  _241
REMARK  107  A    between atoms: _243  and  _245
REMARK  108  A    between atoms: _245  and  _246
REMARK  109  A    between atoms: _249  and  _251
REMARK  110  A    between atoms: _251  and  _252
REMARK  111  A    between atoms: _251  and  _254
REMARK  112  A    between atoms: _254  and  _255
REMARK  113  A    between atoms: _260  and  _262
REMARK  114  A    between atoms: _262  and  _263
REMARK  115  A    between atoms: _262  and  _265
REMARK  116  A    between atoms: _265  and  _266
REMARK  117  A    between atoms: _268  and  _270
REMARK  118  A    between atoms: _270  and  _271
REMARK  119  A    between atoms: _270  and  _273
REMARK  120  A    between atoms: _273  and  _274
REMARK  121  A    between atoms: _277  and  _279
REMARK  122  A    between atoms: _279  and  _280
REMARK  123  A    between atoms: _279  and  _282
REMARK  124  A    between atoms: _282  and  _283
REMARK  125  A    between atoms: _286  and  _287
REMARK  126  A    between atoms: _292  and  _294
REMARK  127  A    between atoms: _294  and  _295
REMARK  128  A    between atoms: _297  and  _299
REMARK  129  A    between atoms: _299  and  _300
REMARK  130  A    between atoms: _299  and  _302
REMARK  131  A    between atoms: _302  and  _303
REMARK  132  A    between atoms: _306  and  _308
REMARK  133  A    between atoms: _308  and  _309
REMARK  134  A    between atoms: _311  and  _313
REMARK  135  A    between atoms: _313  and  _314
REMARK  136  A    between atoms: _317  and  _319
REMARK  137  A    between atoms: _319  and  _320
REMARK  138  A    between atoms: _319  and  _322
REMARK  139  A    between atoms: _322  and  _323
REMARK  140  A    between atoms: _323  and  _324
REMARK  141  A    between atoms: _329  and  _331
REMARK  142  A    between atoms: _331  and  _332
REMARK  143  A    between atoms: _331  and  _334
REMARK  144  A    between atoms: _334  and  _335
REMARK  145  A    between atoms: _340  and  _342
REMARK  146  A    between atoms: _342  and  _343
REMARK  147  A    between atoms: _345  and  _347
REMARK  148  A    between atoms: _347  and  _348
REMARK  149  A    between atoms: _347  and  _350
REMARK  150  A    between atoms: _350  and  _351
REMARK  151  A    between atoms: _356  and  _358
REMARK  152  A    between atoms: _358  and  _359
REMARK  153  A    between atoms: _358  and  _361
REMARK  154  A    between atoms: _361  and  _362
REMARK  155  A    between atoms: _365  and  _367
REMARK  156  A    between atoms: _367  and  _368
REMARK  157  A    between atoms: _370  and  _372
REMARK  158  A    between atoms: _372  and  _373
REMARK  159  A    between atoms: _372  and  _375
REMARK  160  A    between atoms: _375  and  _376
REMARK  161  A    between atoms: _376  and  _377
REMARK  162  A    between atoms: _377  and  _378
REMARK  163  A    between atoms: _387  and  _389
REMARK  164  A    between atoms: _389  and  _390
REMARK  165  A    between atoms: _393  and  _395
REMARK  166  A    between atoms: _395  and  _396
REMARK  167  A    between atoms: _395  and  _398
REMARK  168  A    between atoms: _398  and  _399
REMARK  169  A    between atoms: _402  and  _404
REMARK  170  A    between atoms: _404  and  _405
REMARK  171  A    between atoms: _404  and  _407
REMARK  172  A    between atoms: _407  and  _408
REMARK  173  A    between atoms: _411  and  _413
REMARK  174  A    between atoms: _413  and  _414
REMARK  175  A    between atoms: _413  and  _416
REMARK  176  A    between atoms: _416  and  _417
REMARK  177  A    between atoms: _417  and  _418
REMARK  178  A    between atoms: _418  and  _419
REMARK  179  A    between atoms: _419  and  _420
REMARK  180  A    between atoms: _424  and  _426
REMARK  181  A    between atoms: _426  and  _427
REMARK  182  A    between atoms: _426  and  _429
REMARK  183  A    between atoms: _429  and  _430
REMARK  184  A    between atoms: _435  and  _437
REMARK  185  A    between atoms: _437  and  _438
REMARK  186  A    between atoms: _437  and  _440
REMARK  187  A    between atoms: _440  and  _441
REMARK  188  A    between atoms: _444  and  _446
REMARK  189  A    between atoms: _446  and  _447
REMARK  190  A    between atoms: _446  and  _449
REMARK  191  A    between atoms: _449  and  _450
REMARK  192  A    between atoms: _453  and  _455
REMARK  193  A    between atoms: _455  and  _456
REMARK  194  A    between atoms: _458  and  _460
REMARK  195  A    between atoms: _460  and  _461
REMARK  196  A    between atoms: _460  and  _463
REMARK  197  A    between atoms: _463  and  _464
REMARK  198  A    between atoms: _469  and  _471
REMARK  199  A    between atoms: _471  and  _472
REMARK  200  A    between atoms: _471  and  _474
REMARK  201  A    between atoms: _474  and  _475
REMARK  202  A    between atoms: _478  and  _480
REMARK  203  A    between atoms: _480  and  _481
REMARK  204  A    between atoms: _480  and  _483
REMARK  205  A    between atoms: _486  and  _488
REMARK  206  A    between atoms: _488  and  _489
REMARK  207  A    between atoms: _488  and  _491
REMARK  208  A    between atoms: _491  and  _492
REMARK  209  A    between atoms: _497  and  _499
REMARK  210  A    between atoms: _499  and  _500
REMARK  211  A    between atoms: _499  and  _502
REMARK  212  A    between atoms: _502  and  _503
REMARK  213  A    between atoms: _508  and  _509
REMARK  214  A    between atoms: _511  and  _513
REMARK  215  A    between atoms: _513  and  _514
REMARK  216  A    between atoms: _513  and  _516
REMARK  217  A    between atoms: _516  and  _517
REMARK  218  A    between atoms: _517  and  _518
REMARK                            x       y       z     vdW  Elec       q    Type
REMARK                         _______ _______ _______ _____ _____    ______ ____
ROOT
ATOM      1  O   HOH     1      10.500 -31.339 -22.701  0.00  0.00    +0.000 OA
ENDROOT
TORSDOF 0
REMARK  Name = ../refined-set-2016/2q8z/2q8z_pocket.pdb
REMARK  218 active torsions:
REMARK  status: ('A' for Active; 'I' for Inactive)
REMARK    1  A    between atoms: _1  and  _3
REMARK    2  A    between atoms: _3  and  _4
REMARK    3  A    between atoms: _3  and  _6
REMARK    4  A    between atoms: _8  and  _10
REMARK    5  A    between atoms: _10  and  _11
REMARK    6  A    between atoms: _10  and  _13
REMARK    7  A    between atoms: _13  and  _14
REMARK    8  A    between atoms: _17  and  _19
REMARK    9  A    between atoms: _19  and  _20
REMARK   10  A    between atoms: _22  and  _24
REMARK   11  A    between atoms: _24  and  _25
REMARK   12  A    between atoms: _24  and  _27
REMARK   13  A    between atoms: _27  and  _28
REMARK   14  A    between atoms: _31  and  _33
REMARK   15  A    between atoms: _33  and  _34
REMARK   16  A    between atoms: _33  and  _36
REMARK   17  A    between atoms: _36  and  _37
REMARK   18  A    between atoms: _40  and  _42
REMARK   19  A    between atoms: _42  and  _43
REMARK   20  A    between atoms: _42  and  _45
REMARK   21  A    between atoms: _45  and  _46
REMARK   22  A    between atoms: _46  and  _47
REMARK   23  A    between atoms: _47  and  _48
REMARK   24  A    between atoms: _48  and  _49
REMARK   25  A    between atoms: _53  and  _55
REMARK   26  A    between atoms: _55  and  _56
REMARK   27  A    between atoms: _55  and  _58
REMARK   28  A    between atoms: _58  and  _59
REMARK   29  A    between atoms: _59  and  _60
REMARK   30  A    between atoms: _62  and  _64
REMARK   31  A    between atoms: _64  and  _65
REMARK   32  A    between atoms: _64  and  _67
REMARK   33  A    between atoms: _67  and  _68
REMARK   34  A    between atoms: _73  and  _75
REMARK   35  A    between atoms: _75  and  _76
REMARK   36  A    between atoms: _75  and  _78
REMARK   37  A    between atoms: _78  and  _79
REMARK   38  A    between atoms: _85  and  _87
REMARK   39  A    between atoms: _87  and  _88
REMARK   40  A    between atoms: _91  and  _93
REMARK   41  A    between atoms: _93  and  _94
REMARK   42  A    between atoms: _93  and  _96
REMARK   43  A    between atoms: _96  and  _97
REMARK   44  A    between atoms: _103  and  _105
REMARK   45  A    between atoms: _105  and  _106
REMARK   46  A    between atoms: _105  and  _108
REMARK   47  A    between atoms: _108  and  _109
REMARK   48  A    between atoms: _112  and  _114
REMARK   49  A    between atoms: _114  and  _115
REMARK   50  A    between atoms: _114  and  _117
REMARK   51  A    between atoms: _117  and  _118
REMARK   52  A    between atoms: _118  and  _119
REMARK   53  A    between atoms: _121  and  _123
REMARK   54  A    between atoms: _123  and  _124
REMARK   55  A    between atoms: _123  and  _126
REMARK   56  A    between atoms: _126  and  _127
REMARK   57  A    between atoms: _127  and  _128
REMARK   58  A    between atoms: _128  and  _129
REMARK   59  A    between atoms: _129  and  _130
REMARK   60  A    between atoms: _134  and  _136
REMARK   61  A    between atoms: _136  and  _137
REMARK   62  A    between atoms: _136  and  _139
REMARK   63  A    between atoms: _139  and  _140
REMARK   64  A    between atoms: _143  and  _145
REMARK   65  A    between atoms: _145  and  _146
REMARK   66  A    between atoms: _145  and  _148
REMARK   67  A    between atoms: _148  and  _149
REMARK   68  A    between atoms: _152  and  _154
REMARK   69  A    between atoms: _154  and  _155
REMARK   70  A    between atoms: _154  and  _157
REMARK   71  A    between atoms: _160  and  _162
REMARK   72  A    between atoms: _162  and  _163
REMARK   73  A    between atoms: _162  and  _165
REMARK   74  A    between atoms: _165  and  _166
REMARK   75  A    between atoms: _166  and  _167
REMARK   76  A    between atoms: _167  and  _168
REMARK   77  A    between atoms: _168  and  _169
REMARK   78  A    between atoms: _173  and  _175
REMARK   79  A    between atoms: _175  and  _176
REMARK   80  A    between atoms: _175  and  _178
REMARK   81  A    between atoms: _178  and  _179
REMARK   82  A    between atoms: _182  and  _184
REMARK   83  A    between atoms: _184  and  _185
REMARK   84  A    between atoms: _184  and  _187
REMARK   85  A    between atoms: _187  and  _188
REMARK   86  A    between atoms: _191  and  _193
REMARK   87  A    between atoms: _193  and  _194
REMARK   88  A    between atoms: _193  and  _196
REMARK   89  A    between atoms: _196  and  _197
REMARK   90  A    between atoms: _202  and  _204
REMARK   91  A    between atoms: _204  and  _205
REMARK   92  A    between atoms: _204  and  _207
REMARK   93  A    between atoms: _207  and  _208
REMARK   94  A    between atoms: _210  and  _212
REMARK   95  A    between atoms: _212  and  _213
REMARK   96  A    between atoms: _212  and  _215
REMARK   97  A    between atoms: _215  and  _216
REMARK   98  A    between atoms: _216  and  _217
REMARK   99  A    between atoms: _222  and  _224
REMARK  100  A    between atoms: _224  and  _225
REMARK  101  A    between atoms: _224  and  _227
REMARK  102  A    between atoms: _230  and  _232
REMARK  103  A    between atoms: _232  and  _233
REMARK  104  A    between atoms: _232  and  _235
REMARK  105  A    between atoms: _238  and  _240
REMARK  106  A    between atoms: _240  and  _241
REMARK  107  A    between atoms: _243  and  _245
REMARK  108  A    between atoms: _245  and  _246
REMARK  109  A    between atoms: _249  and  _251
REMARK  110  A    between atoms: _251  and  _252
REMARK  111  A    between atoms: _251  and  _254
REMARK  112  A    between atoms: _254  and  _255
REMARK  113  A    between atoms: _260  and  _262
REMARK  114  A    between atoms: _262  and  _263
REMARK  115  A    between atoms: _262  and  _265
REMARK  116  A    between atoms: _265  and  _266
REMARK  117  A    between atoms: _268  and  _270
REMARK  118  A    between atoms: _270  and  _271
REMARK  119  A    between atoms: _270  and  _273
REMARK  120  A    between atoms: _273  and  _274
REMARK  121  A    between atoms: _277  and  _279
REMARK  122  A    between atoms: _279  and  _280
REMARK  123  A    between atoms: _279  and  _282
REMARK  124  A    between atoms: _282  and  _283
REMARK  125  A    between atoms: _286  and  _287
REMARK  126  A    between atoms: _292  and  _294
REMARK  127  A    between atoms: _294  and  _295
REMARK  128  A    between atoms: _297  and  _299
REMARK  129  A    between atoms: _299  and  _300
REMARK  130  A    between atoms: _299  and  _302
REMARK  131  A    between atoms: _302  and  _303
REMARK  132  A    between atoms: _306  and  _308
REMARK  133  A    between atoms: _308  and  _309
REMARK  134  A    between atoms: _311  and  _313
REMARK  135  A    between atoms: _313  and  _314
REMARK  136  A    between atoms: _317  and  _319
REMARK  137  A    between atoms: _319  and  _320
REMARK  138  A    between atoms: _319  and  _322
REMARK  139  A    between atoms: _322  and  _323
REMARK  140  A    between atoms: _323  and  _324
REMARK  141  A    between atoms: _329  and  _331
REMARK  142  A    between atoms: _331  and  _332
REMARK  143  A    between atoms: _331  and  _334
REMARK  144  A    between atoms: _334  and  _335
REMARK  145  A    between atoms: _340  and  _342
REMARK  146  A    between atoms: _342  and  _343
REMARK  147  A    between atoms: _345  and  _347
REMARK  148  A    between atoms: _347  and  _348
REMARK  149  A    between atoms: _347  and  _350
REMARK  150  A    between atoms: _350  and  _351
REMARK  151  A    between atoms: _356  and  _358
REMARK  152  A    between atoms: _358  and  _359
REMARK  153  A    between atoms: _358  and  _361
REMARK  154  A    between atoms: _361  and  _362
REMARK  155  A    between atoms: _365  and  _367
REMARK  156  A    between atoms: _367  and  _368
REMARK  157  A    between atoms: _370  and  _372
REMARK  158  A    between atoms: _372  and  _373
REMARK  159  A    between atoms: _372  and  _375
REMARK  160  A    between atoms: _375  and  _376
REMARK  161  A    between atoms: _376  and  _377
REMARK  162  A    between atoms: _377  and  _378
REMARK  163  A    between atoms: _387  and  _389
REMARK  164  A    between atoms: _389  and  _390
REMARK  165  A    between atoms: _393  and  _395
REMARK  166  A    between atoms: _395  and  _396
REMARK  167  A    between atoms: _395  and  _398
REMARK  168  A    between atoms: _398  and  _399
REMARK  169  A    between atoms: _402  and  _404
REMARK  170  A    between atoms: _404  and  _405
REMARK  171  A    between atoms: _404  and  _407
REMARK  172  A    between atoms: _407  and  _408
REMARK  173  A    between atoms: _411  and  _413
REMARK  174  A    between atoms: _413  and  _414
REMARK  175  A    between atoms: _413  and  _416
REMARK  176  A    between atoms: _416  and  _417
REMARK  177  A    between atoms: _417  and  _418
REMARK  178  A    between atoms: _418  and  _419
REMARK  179  A    between atoms: _419  and  _420
REMARK  180  A    between atoms: _424  and  _426
REMARK  181  A    between atoms: _426  and  _427
REMARK  182  A    between atoms: _426  and  _429
REMARK  183  A    between atoms: _429  and  _430
REMARK  184  A    between atoms: _435  and  _437
REMARK  185  A    between atoms: _437  and  _438
REMARK  186  A    between atoms: _437  and  _440
REMARK  187  A    between atoms: _440  and  _441
REMARK  188  A    between atoms: _444  and  _446
REMARK  189  A    between atoms: _446  and  _447
REMARK  190  A    between atoms: _446  and  _449
REMARK  191  A    between atoms: _449  and  _450
REMARK  192  A    between atoms: _453  and  _455
REMARK  193  A    between atoms: _455  and  _456
REMARK  194  A    between atoms: _458  and  _460
REMARK  195  A    between atoms: _460  and  _461
REMARK  196  A    between atoms: _460  and  _463
REMARK  197  A    between atoms: _463  and  _464
REMARK  198  A    between atoms: _469  and  _471
REMARK  199  A    between atoms: _471  and  _472
REMARK  200  A    between atoms: _471  and  _474
REMARK  201  A    between atoms: _474  and  _475
REMARK  202  A    between atoms: _478  and  _480
REMARK  203  A    between atoms: _480  and  _481
REMARK  204  A    between atoms: _480  and  _483
REMARK  205  A    between atoms: _486  and  _488
REMARK  206  A    between atoms: _488  and  _489
REMARK  207  A    between atoms: _488  and  _491
REMARK  208  A    between atoms: _491  and  _492
REMARK  209  A    between atoms: _497  and  _499
REMARK  210  A    between atoms: _499  and  _500
REMARK  211  A    between atoms: _499  and  _502
REMARK  212  A    between atoms: _502  and  _503
REMARK  213  A    between atoms: _508  and  _509
REMARK  214  A    between atoms: _511  and  _513
REMARK  215  A    between atoms: _513  and  _514
REMARK  216  A    between atoms: _513  and  _516
REMARK  217  A    between atoms: _516  and  _517
REMARK  218  A    between atoms: _517  and  _518
REMARK                            x       y       z     vdW  Elec       q    Type
REMARK                         _______ _______ _______ _____ _____    ______ ____
ROOT
ATOM      1  O   HOH     1       8.738 -25.256 -14.537  0.00  0.00    +0.000 OA
ENDROOT
TORSDOF 0
REMARK  Name = ../refined-set-2016/2q8z/2q8z_pocket.pdb
REMARK  218 active torsions:
REMARK  status: ('A' for Active; 'I' for Inactive)
REMARK    1  A    between atoms: _1  and  _3
REMARK    2  A    between atoms: _3  and  _4
REMARK    3  A    between atoms: _3  and  _6
REMARK    4  A    between atoms: _8  and  _10
REMARK    5  A    between atoms: _10  and  _11
REMARK    6  A    between atoms: _10  and  _13
REMARK    7  A    between atoms: _13  and  _14
REMARK    8  A    between atoms: _17  and  _19
REMARK    9  A    between atoms: _19  and  _20
REMARK   10  A    between atoms: _22  and  _24
REMARK   11  A    between atoms: _24  and  _25
REMARK   12  A    between atoms: _24  and  _27
REMARK   13  A    between atoms: _27  and  _28
REMARK   14  A    between atoms: _31  and  _33
REMARK   15  A    between atoms: _33  and  _34
REMARK   16  A    between atoms: _33  and  _36
REMARK   17  A    between atoms: _36  and  _37
REMARK   18  A    between atoms: _40  and  _42
REMARK   19  A    between atoms: _42  and  _43
REMARK   20  A    between atoms: _42  and  _45
REMARK   21  A    between atoms: _45  and  _46
REMARK   22  A    between atoms: _46  and  _47
REMARK   23  A    between atoms: _47  and  _48
REMARK   24  A    between atoms: _48  and  _49
REMARK   25  A    between atoms: _53  and  _55
REMARK   26  A    between atoms: _55  and  _56
REMARK   27  A    between atoms: _55  and  _58
REMARK   28  A    between atoms: _58  and  _59
REMARK   29  A    between atoms: _59  and  _60
REMARK   30  A    between atoms: _62  and  _64
REMARK   31  A    between atoms: _64  and  _65
REMARK   32  A    between atoms: _64  and  _67
REMARK   33  A    between atoms: _67  and  _68
REMARK   34  A    between atoms: _73  and  _75
REMARK   35  A    between atoms: _75  and  _76
REMARK   36  A    between atoms: _75  and  _78
REMARK   37  A    between atoms: _78  and  _79
REMARK   38  A    between atoms: _85  and  _87
REMARK   39  A    between atoms: _87  and  _88
REMARK   40  A    between atoms: _91  and  _93
REMARK   41  A    between atoms: _93  and  _94
REMARK   42  A    between atoms: _93  and  _96
REMARK   43  A    between atoms: _96  and  _97
REMARK   44  A    between atoms: _103  and  _105
REMARK   45  A    between atoms: _105  and  _106
REMARK   46  A    between atoms: _105  and  _108
REMARK   47  A    between atoms: _108  and  _109
REMARK   48  A    between atoms: _112  and  _114
REMARK   49  A    between atoms: _114  and  _115
REMARK   50  A    between atoms: _114  and  _117
REMARK   51  A    between atoms: _117  and  _118
REMARK   52  A    between atoms: _118  and  _119
REMARK   53  A    between atoms: _121  and  _123
REMARK   54  A    between atoms: _123  and  _124
REMARK   55  A    between atoms: _123  and  _126
REMARK   56  A    between atoms: _126  and  _127
REMARK   57  A    between atoms: _127  and  _128
REMARK   58  A    between atoms: _128  and  _129
REMARK   59  A    between atoms: _129  and  _130
REMARK   60  A    between atoms: _134  and  _136
REMARK   61  A    between atoms: _136  and  _137
REMARK   62  A    between atoms: _136  and  _139
REMARK   63  A    between atoms: _139  and  _140
REMARK   64  A    between atoms: _143  and  _145
REMARK   65  A    between atoms: _145  and  _146
REMARK   66  A    between atoms: _145  and  _148
REMARK   67  A    between atoms: _148  and  _149
REMARK   68  A    between atoms: _152  and  _154
REMARK   69  A    between atoms: _154  and  _155
REMARK   70  A    between atoms: _154  and  _157
REMARK   71  A    between atoms: _160  and  _162
REMARK   72  A    between atoms: _162  and  _163
REMARK   73  A    between atoms: _162  and  _165
REMARK   74  A    between atoms: _165  and  _166
REMARK   75  A    between atoms: _166  and  _167
REMARK   76  A    between atoms: _167  and  _168
REMARK   77  A    between atoms: _168  and  _169
REMARK   78  A    between atoms: _173  and  _175
REMARK   79  A    between atoms: _175  and  _176
REMARK   80  A    between atoms: _175  and  _178
REMARK   81  A    between atoms: _178  and  _179
REMARK   82  A    between atoms: _182  and  _184
REMARK   83  A    between atoms: _184  and  _185
REMARK   84  A    between atoms: _184  and  _187
REMARK   85  A    between atoms: _187  and  _188
REMARK   86  A    between atoms: _191  and  _193
REMARK   87  A    between atoms: _193  and  _194
REMARK   88  A    between atoms: _193  and  _196
REMARK   89  A    between atoms: _196  and  _197
REMARK   90  A    between atoms: _202  and  _204
REMARK   91  A    between atoms: _204  and  _205
REMARK   92  A    between atoms: _204  and  _207
REMARK   93  A    between atoms: _207  and  _208
REMARK   94  A    between atoms: _210  and  _212
REMARK   95  A    between atoms: _212  and  _213
REMARK   96  A    between atoms: _212  and  _215
REMARK   97  A    between atoms: _215  and  _216
REMARK   98  A    between atoms: _216  and  _217
REMARK   99  A    between atoms: _222  and  _224
REMARK  100  A    between atoms: _224  and  _225
REMARK  101  A    between atoms: _224  and  _227
REMARK  102  A    between atoms: _230  and  _232
REMARK  103  A    between atoms: _232  and  _233
REMARK  104  A    between atoms: _232  and  _235
REMARK  105  A    between atoms: _238  and  _240
REMARK  106  A    between atoms: _240  and  _241
REMARK  107  A    between atoms: _243  and  _245
REMARK  108  A    between atoms: _245  and  _246
REMARK  109  A    between atoms: _249  and  _251
REMARK  110  A    between atoms: _251  and  _252
REMARK  111  A    between atoms: _251  and  _254
REMARK  112  A    between atoms: _254  and  _255
REMARK  113  A    between atoms: _260  and  _262
REMARK  114  A    between atoms: _262  and  _263
REMARK  115  A    between atoms: _262  and  _265
REMARK  116  A    between atoms: _265  and  _266
REMARK  117  A    between atoms: _268  and  _270
REMARK  118  A    between atoms: _270  and  _271
REMARK  119  A    between atoms: _270  and  _273
REMARK  120  A    between atoms: _273  and  _274
REMARK  121  A    between atoms: _277  and  _279
REMARK  122  A    between atoms: _279  and  _280
REMARK  123  A    between atoms: _279  and  _282
REMARK  124  A    between atoms: _282  and  _283
REMARK  125  A    between atoms: _286  and  _287
REMARK  126  A    between atoms: _292  and  _294
REMARK  127  A    between atoms: _294  and  _295
REMARK  128  A    between atoms: _297  and  _299
REMARK  129  A    between atoms: _299  and  _300
REMARK  130  A    between atoms: _299  and  _302
REMARK  131  A    between atoms: _302  and  _303
REMARK  132  A    between atoms: _306  and  _308
REMARK  133  A    between atoms: _308  and  _309
REMARK  134  A    between atoms: _311  and  _313
REMARK  135  A    between atoms: _313  and  _314
REMARK  136  A    between atoms: _317  and  _319
REMARK  137  A    between atoms: _319  and  _320
REMARK  138  A    between atoms: _319  and  _322
REMARK  139  A    between atoms: _322  and  _323
REMARK  140  A    between atoms: _323  and  _324
REMARK  141  A    between atoms: _329  and  _331
REMARK  142  A    between atoms: _331  and  _332
REMARK  143  A    between atoms: _331  and  _334
REMARK  144  A    between atoms: _334  and  _335
REMARK  145  A    between atoms: _340  and  _342
REMARK  146  A    between atoms: _342  and  _343
REMARK  147  A    between atoms: _345  and  _347
REMARK  148  A    between atoms: _347  and  _348
REMARK  149  A    between atoms: _347  and  _350
REMARK  150  A    between atoms: _350  and  _351
REMARK  151  A    between atoms: _356  and  _358
REMARK  152  A    between atoms: _358  and  _359
REMARK  153  A    between atoms: _358  and  _361
REMARK  154  A    between atoms: _361  and  _362
REMARK  155  A    between atoms: _365  and  _367
REMARK  156  A    between atoms: _367  and  _368
REMARK  157  A    between atoms: _370  and  _372
REMARK  158  A    between atoms: _372  and  _373
REMARK  159  A    between atoms: _372  and  _375
REMARK  160  A    between atoms: _375  and  _376
REMARK  161  A    between atoms: _376  and  _377
REMARK  162  A    between atoms: _377  and  _378
REMARK  163  A    between atoms: _387  and  _389
REMARK  164  A    between atoms: _389  and  _390
REMARK  165  A    between atoms: _393  and  _395
REMARK  166  A    between atoms: _395  and  _396
REMARK  167  A    between atoms: _395  and  _398
REMARK  168  A    between atoms: _398  and  _399
REMARK  169  A    between atoms: _402  and  _404
REMARK  170  A    between atoms: _404  and  _405
REMARK  171  A    between atoms: _404  and  _407
REMARK  172  A    between atoms: _407  and  _408
REMARK  173  A    between atoms: _411  and  _413
REMARK  174  A    between atoms: _413  and  _414
REMARK  175  A    between atoms: _413  and  _416
REMARK  176  A    between atoms: _416  and  _417
REMARK  177  A    between atoms: _417  and  _418
REMARK  178  A    between atoms: _418  and  _419
REMARK  179  A    between atoms: _419  and  _420
REMARK  180  A    between atoms: _424  and  _426
REMARK  181  A    between atoms: _426  and  _427
REMARK  182  A    between atoms: _426  and  _429
REMARK  183  A    between atoms: _429  and  _430
REMARK  184  A    between atoms: _435  and  _437
REMARK  185  A    between atoms: _437  and  _438
REMARK  186  A    between atoms: _437  and  _440
REMARK  187  A    between atoms: _440  and  _441
REMARK  188  A    between atoms: _444  and  _446
REMARK  189  A    between atoms: _446  and  _447
REMARK  190  A    between atoms: _446  and  _449
REMARK  191  A    between atoms: _449  and  _450
REMARK  192  A    between atoms: _453  and  _455
REMARK  193  A    between atoms: _455  and  _456
REMARK  194  A    between atoms: _458  and  _460
REMARK  195  A    between atoms: _460  and  _461
REMARK  196  A    between atoms: _460  and  _463
REMARK  197  A    between atoms: _463  and  _464
REMARK  198  A    between atoms: _469  and  _471
REMARK  199  A    between atoms: _471  and  _472
REMARK  200  A    between atoms: _471  and  _474
REMARK  201  A    between atoms: _474  and  _475
REMARK  202  A    between atoms: _478  and  _480
REMARK  203  A    between atoms: _480  and  _481
REMARK  204  A    between atoms: _480  and  _483
REMARK  205  A    between atoms: _486  and  _488
REMARK  206  A    between atoms: _488  and  _489
REMARK  207  A    between atoms: _488  and  _491
REMARK  208  A    between atoms: _491  and  _492
REMARK  209  A    between atoms: _497  and  _499
REMARK  210  A    between atoms: _499  and  _500
REMARK  211  A    between atoms: _499  and  _502
REMARK  212  A    between atoms: _502  and  _503
REMARK  213  A    between atoms: _508  and  _509
REMARK  214  A    between atoms: _511  and  _513
REMARK  215  A    between atoms: _513  and  _514
REMARK  216  A    between atoms: _513  and  _516
REMARK  217  A    between atoms: _516  and  _517
REMARK  218  A    between atoms: _517  and  _518
REMARK                            x       y       z     vdW  Elec       q    Type
REMARK                         _______ _______ _______ _____ _____    ______ ____
ROOT
ATOM      1  O   HOH     1      15.438 -23.578 -22.608  0.00  0.00    +0.000 OA
ENDROOT
TORSDOF 0
