REMARK  Name = ../refined-set-2016/2psu/2psu_pocket.pdb
REMARK  219 active torsions:
REMARK  status: ('A' for Active; 'I' for Inactive)
REMARK    1  A    between atoms: _1  and  _3
REMARK    2  A    between atoms: _3  and  _4
REMARK    3  A    between atoms: _3  and  _6
REMARK    4  A    between atoms: _6  and  _7
REMARK    5  A    between atoms: _7  and  _8
REMARK    6  A    between atoms: _8  and  _9
REMARK    7  A    between atoms: _18  and  _20
REMARK    8  A    between atoms: _20  and  _21
REMARK    9  A    between atoms: _20  and  _23
REMARK   10  A    between atoms: _23  and  _24
REMARK   11  A    between atoms: _27  and  _29
REMARK   12  A    between atoms: _29  and  _30
REMARK   13  A    between atoms: _29  and  _32
REMARK   14  A    between atoms: _32  and  _33
REMARK   15  A    between atoms: _36  and  _38
REMARK   16  A    between atoms: _38  and  _39
REMARK   17  A    between atoms: _38  and  _41
REMARK   18  A    between atoms: _41  and  _42
REMARK   19  A    between atoms: _45  and  _47
REMARK   20  A    between atoms: _47  and  _48
REMARK   21  A    between atoms: _47  and  _50
REMARK   22  A    between atoms: _50  and  _51
REMARK   23  A    between atoms: _54  and  _56
REMARK   24  A    between atoms: _56  and  _57
REMARK   25  A    between atoms: _59  and  _61
REMARK   26  A    between atoms: _61  and  _62
REMARK   27  A    between atoms: _65  and  _67
REMARK   28  A    between atoms: _67  and  _68
REMARK   29  A    between atoms: _67  and  _70
REMARK   30  A    between atoms: _70  and  _71
REMARK   31  A    between atoms: _74  and  _76
REMARK   32  A    between atoms: _76  and  _77
REMARK   33  A    between atoms: _76  and  _79
REMARK   34  A    between atoms: _79  and  _80
REMARK   35  A    between atoms: _83  and  _85
REMARK   36  A    between atoms: _85  and  _86
REMARK   37  A    between atoms: _85  and  _88
REMARK   38  A    between atoms: _88  and  _89
REMARK   39  A    between atoms: _92  and  _94
REMARK   40  A    between atoms: _94  and  _95
REMARK   41  A    between atoms: _94  and  _97
REMARK   42  A    between atoms: _100  and  _102
REMARK   43  A    between atoms: _102  and  _103
REMARK   44  A    between atoms: _102  and  _105
REMARK   45  A    between atoms: _105  and  _106
REMARK   46  A    between atoms: _106  and  _107
REMARK   47  A    between atoms: _109  and  _111
REMARK   48  A    between atoms: _111  and  _112
REMARK   49  A    between atoms: _111  and  _114
REMARK   50  A    between atoms: _114  and  _115
REMARK   51  A    between atoms: _118  and  _120
REMARK   52  A    between atoms: _120  and  _121
REMARK   53  A    between atoms: _123  and  _125
REMARK   54  A    between atoms: _125  and  _126
REMARK   55  A    between atoms: _128  and  _130
REMARK   56  A    between atoms: _130  and  _131
REMARK   57  A    between atoms: _130  and  _133
REMARK   58  A    between atoms: _133  and  _134
REMARK   59  A    between atoms: _137  and  _139
REMARK   60  A    between atoms: _139  and  _140
REMARK   61  A    between atoms: _142  and  _144
REMARK   62  A    between atoms: _144  and  _145
REMARK   63  A    between atoms: _147  and  _149
REMARK   64  A    between atoms: _149  and  _150
REMARK   65  A    between atoms: _149  and  _152
REMARK   66  A    between atoms: _152  and  _153
REMARK   67  A    between atoms: _159  and  _161
REMARK   68  A    between atoms: _161  and  _162
REMARK   69  A    between atoms: _161  and  _164
REMARK   70  A    between atoms: _164  and  _165
REMARK   71  A    between atoms: _168  and  _170
REMARK   72  A    between atoms: _170  and  _171
REMARK   73  A    between atoms: _170  and  _173
REMARK   74  A    between atoms: _173  and  _174
REMARK   75  A    between atoms: _177  and  _179
REMARK   76  A    between atoms: _179  and  _180
REMARK   77  A    between atoms: _179  and  _182
REMARK   78  A    between atoms: _182  and  _183
REMARK   79  A    between atoms: _187  and  _188
REMARK   80  A    between atoms: _193  and  _195
REMARK   81  A    between atoms: _195  and  _196
REMARK   82  A    between atoms: _195  and  _198
REMARK   83  A    between atoms: _201  and  _203
REMARK   84  A    between atoms: _203  and  _204
REMARK   85  A    between atoms: _203  and  _206
REMARK   86  A    between atoms: _206  and  _207
REMARK   87  A    between atoms: _212  and  _214
REMARK   88  A    between atoms: _214  and  _215
REMARK   89  A    between atoms: _214  and  _217
REMARK   90  A    between atoms: _217  and  _218
REMARK   91  A    between atoms: _221  and  _223
REMARK   92  A    between atoms: _223  and  _224
REMARK   93  A    between atoms: _223  and  _226
REMARK   94  A    between atoms: _226  and  _227
REMARK   95  A    between atoms: _230  and  _232
REMARK   96  A    between atoms: _232  and  _233
REMARK   97  A    between atoms: _235  and  _237
REMARK   98  A    between atoms: _237  and  _238
REMARK   99  A    between atoms: _237  and  _240
REMARK  100  A    between atoms: _240  and  _241
REMARK  101  A    between atoms: _241  and  _242
REMARK  102  A    between atoms: _242  and  _243
REMARK  103  A    between atoms: _252  and  _254
REMARK  104  A    between atoms: _254  and  _255
REMARK  105  A    between atoms: _254  and  _257
REMARK  106  A    between atoms: _257  and  _258
REMARK  107  A    between atoms: _263  and  _265
REMARK  108  A    between atoms: _265  and  _266
REMARK  109  A    between atoms: _265  and  _268
REMARK  110  A    between atoms: _268  and  _269
REMARK  111  A    between atoms: _269  and  _270
REMARK  112  A    between atoms: _270  and  _271
REMARK  113  A    between atoms: _280  and  _282
REMARK  114  A    between atoms: _282  and  _283
REMARK  115  A    between atoms: _282  and  _285
REMARK  116  A    between atoms: _285  and  _286
REMARK  117  A    between atoms: _289  and  _291
REMARK  118  A    between atoms: _291  and  _292
REMARK  119  A    between atoms: _291  and  _294
REMARK  120  A    between atoms: _294  and  _295
REMARK  121  A    between atoms: _298  and  _300
REMARK  122  A    between atoms: _300  and  _301
REMARK  123  A    between atoms: _300  and  _303
REMARK  124  A    between atoms: _303  and  _304
REMARK  125  A    between atoms: _307  and  _309
REMARK  126  A    between atoms: _309  and  _310
REMARK  127  A    between atoms: _309  and  _312
REMARK  128  A    between atoms: _312  and  _313
REMARK  129  A    between atoms: _316  and  _318
REMARK  130  A    between atoms: _318  and  _319
REMARK  131  A    between atoms: _321  and  _323
REMARK  132  A    between atoms: _323  and  _324
REMARK  133  A    between atoms: _327  and  _329
REMARK  134  A    between atoms: _329  and  _330
REMARK  135  A    between atoms: _329  and  _332
REMARK  136  A    between atoms: _332  and  _333
REMARK  137  A    between atoms: _336  and  _338
REMARK  138  A    between atoms: _338  and  _339
REMARK  139  A    between atoms: _338  and  _341
REMARK  140  A    between atoms: _341  and  _342
REMARK  141  A    between atoms: _345  and  _347
REMARK  142  A    between atoms: _347  and  _348
REMARK  143  A    between atoms: _347  and  _350
REMARK  144  A    between atoms: _350  and  _351
REMARK  145  A    between atoms: _354  and  _356
REMARK  146  A    between atoms: _356  and  _357
REMARK  147  A    between atoms: _356  and  _359
REMARK  148  A    between atoms: _362  and  _364
REMARK  149  A    between atoms: _364  and  _365
REMARK  150  A    between atoms: _364  and  _367
REMARK  151  A    between atoms: _367  and  _368
REMARK  152  A    between atoms: _368  and  _369
REMARK  153  A    between atoms: _369  and  _370
REMARK  154  A    between atoms: _370  and  _371
REMARK  155  A    between atoms: _375  and  _377
REMARK  156  A    between atoms: _377  and  _378
REMARK  157  A    between atoms: _377  and  _380
REMARK  158  A    between atoms: _380  and  _381
REMARK  159  A    between atoms: _381  and  _382
REMARK  160  A    between atoms: _384  and  _386
REMARK  161  A    between atoms: _386  and  _387
REMARK  162  A    between atoms: _386  and  _389
REMARK  163  A    between atoms: _389  and  _390
REMARK  164  A    between atoms: _393  and  _395
REMARK  165  A    between atoms: _395  and  _396
REMARK  166  A    between atoms: _398  and  _400
REMARK  167  A    between atoms: _400  and  _401
REMARK  168  A    between atoms: _403  and  _405
REMARK  169  A    between atoms: _405  and  _406
REMARK  170  A    between atoms: _405  and  _408
REMARK  171  A    between atoms: _408  and  _409
REMARK  172  A    between atoms: _412  and  _414
REMARK  173  A    between atoms: _414  and  _415
REMARK  174  A    between atoms: _417  and  _419
REMARK  175  A    between atoms: _419  and  _420
REMARK  176  A    between atoms: _422  and  _424
REMARK  177  A    between atoms: _424  and  _425
REMARK  178  A    between atoms: _424  and  _427
REMARK  179  A    between atoms: _427  and  _428
REMARK  180  A    between atoms: _434  and  _436
REMARK  181  A    between atoms: _436  and  _437
REMARK  182  A    between atoms: _436  and  _439
REMARK  183  A    between atoms: _439  and  _440
REMARK  184  A    between atoms: _443  and  _445
REMARK  185  A    between atoms: _445  and  _446
REMARK  186  A    between atoms: _445  and  _448
REMARK  187  A    between atoms: _448  and  _449
REMARK  188  A    between atoms: _452  and  _454
REMARK  189  A    between atoms: _454  and  _455
REMARK  190  A    between atoms: _454  and  _457
REMARK  191  A    between atoms: _457  and  _458
REMARK  192  A    between atoms: _462  and  _463
REMARK  193  A    between atoms: _468  and  _470
REMARK  194  A    between atoms: _470  and  _471
REMARK  195  A    between atoms: _470  and  _473
REMARK  196  A    between atoms: _476  and  _478
REMARK  197  A    between atoms: _478  and  _479
REMARK  198  A    between atoms: _478  and  _481
REMARK  199  A    between atoms: _481  and  _482
REMARK  200  A    between atoms: _487  and  _489
REMARK  201  A    between atoms: _489  and  _490
REMARK  202  A    between atoms: _489  and  _492
REMARK  203  A    between atoms: _492  and  _493
REMARK  204  A    between atoms: _496  and  _498
REMARK  205  A    between atoms: _498  and  _499
REMARK  206  A    between atoms: _498  and  _501
REMARK  207  A    between atoms: _501  and  _502
REMARK  208  A    between atoms: _505  and  _507
REMARK  209  A    between atoms: _507  and  _508
REMARK  210  A    between atoms: _510  and  _512
REMARK  211  A    between atoms: _512  and  _513
REMARK  212  A    between atoms: _512  and  _515
REMARK  213  A    between atoms: _515  and  _516
REMARK  214  A    between atoms: _516  and  _517
REMARK  215  A    between atoms: _517  and  _518
REMARK  216  A    between atoms: _527  and  _529
REMARK  217  A    between atoms: _529  and  _530
REMARK  218  A    between atoms: _529  and  _532
REMARK  219  A    between atoms: _532  and  _533
REMARK                            x       y       z     vdW  Elec       q    Type
REMARK                         _______ _______ _______ _____ _____    ______ ____
ROOT
ATOM      1  NE  ARG A   1      21.371  37.393  24.046  0.00  0.00    -0.265 N 
ATOM      2  HE  ARG A   1      21.044  37.989  24.833  0.00  0.00    +0.259 HD
ATOM      3  CZ  ARG A   1      20.967  37.733  22.818  0.00  0.00    +0.342 C 
ATOM      4  NH2 ARG A   1      20.198  38.808  22.658  0.00  0.00    -0.292 N 
ATOM      5 HH21 ARG A   1      19.917  39.374  23.484  0.00  0.00    +0.255 HD
ATOM      6 HH22 ARG A   1      19.878  39.082  21.707  0.00  0.00    +0.255 HD
ATOM      7  NH1 ARG A   1      21.305  37.013  21.745  0.00  0.00    -0.292 N 
ATOM      8 HH11 ARG A   1      21.897  36.165  21.853  0.00  0.00    +0.255 HD
ATOM      9 HH12 ARG A   1      20.977  37.301  20.801  0.00  0.00    +0.255 HD
ENDROOT
BRANCH   1  10
ATOM     10  CD  ARG A   1      22.233  36.256  24.385  0.00  0.00    +0.174 C 
BRANCH  10  11
ATOM     11  CG  ARG A   1      21.530  35.209  25.241  0.00  0.00    +0.045 C 
BRANCH  11  12
ATOM     12  CB  ARG A   1      22.527  34.424  26.057  0.00  0.00    +0.029 C 
BRANCH  12  13
ATOM     13  CA  ARG A   1      21.906  33.416  27.023  0.00  0.00    +0.133 C 
BRANCH  13  14
ATOM     14  N   ARG A   1      21.226  34.082  28.145  0.00  0.00    -0.239 NA
ATOM     15  H   ARG A   1      21.219  35.121  28.195  0.00  0.00    +0.142 HD
ENDBRANCH  13  14
BRANCH  13  16
ATOM     16  C   ARG A   1      23.020  32.504  27.554  0.00  0.00    +0.224 C 
ATOM     17  O   ARG A   1      23.842  32.932  28.379  0.00  0.00    -0.287 OA
ENDBRANCH  13  16
ENDBRANCH  12  13
ENDBRANCH  11  12
ENDBRANCH  10  11
ENDBRANCH   1  10
TORSDOF 6
REMARK  Name = ../refined-set-2016/2psu/2psu_pocket.pdb
REMARK  219 active torsions:
REMARK  status: ('A' for Active; 'I' for Inactive)
REMARK    1  A    between atoms: _1  and  _3
REMARK    2  A    between atoms: _3  and  _4
REMARK    3  A    between atoms: _3  and  _6
REMARK    4  A    between atoms: _6  and  _7
REMARK    5  A    between atoms: _7  and  _8
REMARK    6  A    between atoms: _8  and  _9
REMARK    7  A    between atoms: _18  and  _20
REMARK    8  A    between atoms: _20  and  _21
REMARK    9  A    between atoms: _20  and  _23
REMARK   10  A    between atoms: _23  and  _24
REMARK   11  A    between atoms: _27  and  _29
REMARK   12  A    between atoms: _29  and  _30
REMARK   13  A    between atoms: _29  and  _32
REMARK   14  A    between atoms: _32  and  _33
REMARK   15  A    between atoms: _36  and  _38
REMARK   16  A    between atoms: _38  and  _39
REMARK   17  A    between atoms: _38  and  _41
REMARK   18  A    between atoms: _41  and  _42
REMARK   19  A    between atoms: _45  and  _47
REMARK   20  A    between atoms: _47  and  _48
REMARK   21  A    between atoms: _47  and  _50
REMARK   22  A    between atoms: _50  and  _51
REMARK   23  A    between atoms: _54  and  _56
REMARK   24  A    between atoms: _56  and  _57
REMARK   25  A    between atoms: _59  and  _61
REMARK   26  A    between atoms: _61  and  _62
REMARK   27  A    between atoms: _65  and  _67
REMARK   28  A    between atoms: _67  and  _68
REMARK   29  A    between atoms: _67  and  _70
REMARK   30  A    between atoms: _70  and  _71
REMARK   31  A    between atoms: _74  and  _76
REMARK   32  A    between atoms: _76  and  _77
REMARK   33  A    between atoms: _76  and  _79
REMARK   34  A    between atoms: _79  and  _80
REMARK   35  A    between atoms: _83  and  _85
REMARK   36  A    between atoms: _85  and  _86
REMARK   37  A    between atoms: _85  and  _88
REMARK   38  A    between atoms: _88  and  _89
REMARK   39  A    between atoms: _92  and  _94
REMARK   40  A    between atoms: _94  and  _95
REMARK   41  A    between atoms: _94  and  _97
REMARK   42  A    between atoms: _100  and  _102
REMARK   43  A    between atoms: _102  and  _103
REMARK   44  A    between atoms: _102  and  _105
REMARK   45  A    between atoms: _105  and  _106
REMARK   46  A    between atoms: _106  and  _107
REMARK   47  A    between atoms: _109  and  _111
REMARK   48  A    between atoms: _111  and  _112
REMARK   49  A    between atoms: _111  and  _114
REMARK   50  A    between atoms: _114  and  _115
REMARK   51  A    between atoms: _118  and  _120
REMARK   52  A    between atoms: _120  and  _121
REMARK   53  A    between atoms: _123  and  _125
REMARK   54  A    between atoms: _125  and  _126
REMARK   55  A    between atoms: _128  and  _130
REMARK   56  A    between atoms: _130  and  _131
REMARK   57  A    between atoms: _130  and  _133
REMARK   58  A    between atoms: _133  and  _134
REMARK   59  A    between atoms: _137  and  _139
REMARK   60  A    between atoms: _139  and  _140
REMARK   61  A    between atoms: _142  and  _144
REMARK   62  A    between atoms: _144  and  _145
REMARK   63  A    between atoms: _147  and  _149
REMARK   64  A    between atoms: _149  and  _150
REMARK   65  A    between atoms: _149  and  _152
REMARK   66  A    between atoms: _152  and  _153
REMARK   67  A    between atoms: _159  and  _161
REMARK   68  A    between atoms: _161  and  _162
REMARK   69  A    between atoms: _161  and  _164
REMARK   70  A    between atoms: _164  and  _165
REMARK   71  A    between atoms: _168  and  _170
REMARK   72  A    between atoms: _170  and  _171
REMARK   73  A    between atoms: _170  and  _173
REMARK   74  A    between atoms: _173  and  _174
REMARK   75  A    between atoms: _177  and  _179
REMARK   76  A    between atoms: _179  and  _180
REMARK   77  A    between atoms: _179  and  _182
REMARK   78  A    between atoms: _182  and  _183
REMARK   79  A    between atoms: _187  and  _188
REMARK   80  A    between atoms: _193  and  _195
REMARK   81  A    between atoms: _195  and  _196
REMARK   82  A    between atoms: _195  and  _198
REMARK   83  A    between atoms: _201  and  _203
REMARK   84  A    between atoms: _203  and  _204
REMARK   85  A    between atoms: _203  and  _206
REMARK   86  A    between atoms: _206  and  _207
REMARK   87  A    between atoms: _212  and  _214
REMARK   88  A    between atoms: _214  and  _215
REMARK   89  A    between atoms: _214  and  _217
REMARK   90  A    between atoms: _217  and  _218
REMARK   91  A    between atoms: _221  and  _223
REMARK   92  A    between atoms: _223  and  _224
REMARK   93  A    between atoms: _223  and  _226
REMARK   94  A    between atoms: _226  and  _227
REMARK   95  A    between atoms: _230  and  _232
REMARK   96  A    between atoms: _232  and  _233
REMARK   97  A    between atoms: _235  and  _237
REMARK   98  A    between atoms: _237  and  _238
REMARK   99  A    between atoms: _237  and  _240
REMARK  100  A    between atoms: _240  and  _241
REMARK  101  A    between atoms: _241  and  _242
REMARK  102  A    between atoms: _242  and  _243
REMARK  103  A    between atoms: _252  and  _254
REMARK  104  A    between atoms: _254  and  _255
REMARK  105  A    between atoms: _254  and  _257
REMARK  106  A    between atoms: _257  and  _258
REMARK  107  A    between atoms: _263  and  _265
REMARK  108  A    between atoms: _265  and  _266
REMARK  109  A    between atoms: _265  and  _268
REMARK  110  A    between atoms: _268  and  _269
REMARK  111  A    between atoms: _269  and  _270
REMARK  112  A    between atoms: _270  and  _271
REMARK  113  A    between atoms: _280  and  _282
REMARK  114  A    between atoms: _282  and  _283
REMARK  115  A    between atoms: _282  and  _285
REMARK  116  A    between atoms: _285  and  _286
REMARK  117  A    between atoms: _289  and  _291
REMARK  118  A    between atoms: _291  and  _292
REMARK  119  A    between atoms: _291  and  _294
REMARK  120  A    between atoms: _294  and  _295
REMARK  121  A    between atoms: _298  and  _300
REMARK  122  A    between atoms: _300  and  _301
REMARK  123  A    between atoms: _300  and  _303
REMARK  124  A    between atoms: _303  and  _304
REMARK  125  A    between atoms: _307  and  _309
REMARK  126  A    between atoms: _309  and  _310
REMARK  127  A    between atoms: _309  and  _312
REMARK  128  A    between atoms: _312  and  _313
REMARK  129  A    between atoms: _316  and  _318
REMARK  130  A    between atoms: _318  and  _319
REMARK  131  A    between atoms: _321  and  _323
REMARK  132  A    between atoms: _323  and  _324
REMARK  133  A    between atoms: _327  and  _329
REMARK  134  A    between atoms: _329  and  _330
REMARK  135  A    between atoms: _329  and  _332
REMARK  136  A    between atoms: _332  and  _333
REMARK  137  A    between atoms: _336  and  _338
REMARK  138  A    between atoms: _338  and  _339
REMARK  139  A    between atoms: _338  and  _341
REMARK  140  A    between atoms: _341  and  _342
REMARK  141  A    between atoms: _345  and  _347
REMARK  142  A    between atoms: _347  and  _348
REMARK  143  A    between atoms: _347  and  _350
REMARK  144  A    between atoms: _350  and  _351
REMARK  145  A    between atoms: _354  and  _356
REMARK  146  A    between atoms: _356  and  _357
REMARK  147  A    between atoms: _356  and  _359
REMARK  148  A    between atoms: _362  and  _364
REMARK  149  A    between atoms: _364  and  _365
REMARK  150  A    between atoms: _364  and  _367
REMARK  151  A    between atoms: _367  and  _368
REMARK  152  A    between atoms: _368  and  _369
REMARK  153  A    between atoms: _369  and  _370
REMARK  154  A    between atoms: _370  and  _371
REMARK  155  A    between atoms: _375  and  _377
REMARK  156  A    between atoms: _377  and  _378
REMARK  157  A    between atoms: _377  and  _380
REMARK  158  A    between atoms: _380  and  _381
REMARK  159  A    between atoms: _381  and  _382
REMARK  160  A    between atoms: _384  and  _386
REMARK  161  A    between atoms: _386  and  _387
REMARK  162  A    between atoms: _386  and  _389
REMARK  163  A    between atoms: _389  and  _390
REMARK  164  A    between atoms: _393  and  _395
REMARK  165  A    between atoms: _395  and  _396
REMARK  166  A    between atoms: _398  and  _400
REMARK  167  A    between atoms: _400  and  _401
REMARK  168  A    between atoms: _403  and  _405
REMARK  169  A    between atoms: _405  and  _406
REMARK  170  A    between atoms: _405  and  _408
REMARK  171  A    between atoms: _408  and  _409
REMARK  172  A    between atoms: _412  and  _414
REMARK  173  A    between atoms: _414  and  _415
REMARK  174  A    between atoms: _417  and  _419
REMARK  175  A    between atoms: _419  and  _420
REMARK  176  A    between atoms: _422  and  _424
REMARK  177  A    between atoms: _424  and  _425
REMARK  178  A    between atoms: _424  and  _427
REMARK  179  A    between atoms: _427  and  _428
REMARK  180  A    between atoms: _434  and  _436
REMARK  181  A    between atoms: _436  and  _437
REMARK  182  A    between atoms: _436  and  _439
REMARK  183  A    between atoms: _439  and  _440
REMARK  184  A    between atoms: _443  and  _445
REMARK  185  A    between atoms: _445  and  _446
REMARK  186  A    between atoms: _445  and  _448
REMARK  187  A    between atoms: _448  and  _449
REMARK  188  A    between atoms: _452  and  _454
REMARK  189  A    between atoms: _454  and  _455
REMARK  190  A    between atoms: _454  and  _457
REMARK  191  A    between atoms: _457  and  _458
REMARK  192  A    between atoms: _462  and  _463
REMARK  193  A    between atoms: _468  and  _470
REMARK  194  A    between atoms: _470  and  _471
REMARK  195  A    between atoms: _470  and  _473
REMARK  196  A    between atoms: _476  and  _478
REMARK  197  A    between atoms: _478  and  _479
REMARK  198  A    between atoms: _478  and  _481
REMARK  199  A    between atoms: _481  and  _482
REMARK  200  A    between atoms: _487  and  _489
REMARK  201  A    between atoms: _489  and  _490
REMARK  202  A    between atoms: _489  and  _492
REMARK  203  A    between atoms: _492  and  _493
REMARK  204  A    between atoms: _496  and  _498
REMARK  205  A    between atoms: _498  and  _499
REMARK  206  A    between atoms: _498  and  _501
REMARK  207  A    between atoms: _501  and  _502
REMARK  208  A    between atoms: _505  and  _507
REMARK  209  A    between atoms: _507  and  _508
REMARK  210  A    between atoms: _510  and  _512
REMARK  211  A    between atoms: _512  and  _513
REMARK  212  A    between atoms: _512  and  _515
REMARK  213  A    between atoms: _515  and  _516
REMARK  214  A    between atoms: _516  and  _517
REMARK  215  A    between atoms: _517  and  _518
REMARK  216  A    between atoms: _527  and  _529
REMARK  217  A    between atoms: _529  and  _530
REMARK  218  A    between atoms: _529  and  _532
REMARK  219  A    between atoms: _532  and  _533
REMARK                            x       y       z     vdW  Elec       q    Type
REMARK                         _______ _______ _______ _____ _____    ______ ____
ROOT
ATOM      1  C   GLY A   5      20.640  25.085  15.850  0.00  0.00    +0.243 C 
ATOM      2  N   ALA A   6      21.940  24.998  16.132  0.00  0.00    -0.297 N 
ATOM      3  H   ALA A   6      22.231  24.894  17.125  0.00  0.00    +0.150 HD
ATOM      4  O   GLY A   5      20.214  25.271  14.713  0.00  0.00    -0.273 OA
ENDROOT
BRANCH   2   5
ATOM      5  CA  ALA A   6      22.968  25.043  15.101  0.00  0.00    +0.149 C 
ATOM      6  CB  ALA A   6      24.039  26.053  15.477  0.00  0.00    +0.031 C 
BRANCH   5   7
ATOM      7  C   ALA A   6      23.590  23.656  14.889  0.00  0.00    +0.241 C 
ATOM      8  O   ALA A   6      24.059  23.022  15.835  0.00  0.00    -0.273 OA
ATOM      9  N   ASP A   7      23.595  23.199  13.645  0.00  0.00    -0.297 N 
ATOM     10  H   ASP A   7      23.099  23.737  12.906  0.00  0.00    +0.150 HD
BRANCH   9  11
ATOM     11  CA  ASP A   7      24.279  21.958  13.284  0.00  0.00    +0.160 C 
BRANCH  11  12
ATOM     12  C   ASP A   7      25.790  22.134  13.431  0.00  0.00    +0.241 C 
ATOM     13  O   ASP A   7      26.497  21.222  13.854  0.00  0.00    -0.273 OA
ATOM     14  N   ASP A   8      26.256  23.321  13.063  0.00  0.00    -0.297 N 
ATOM     15  H   ASP A   8      25.576  24.090  12.897  0.00  0.00    +0.150 HD
BRANCH  14  16
ATOM     16  CA  ASP A   8      27.672  23.599  12.880  0.00  0.00    +0.160 C 
BRANCH  16  17
ATOM     17  C   ASP A   8      28.114  24.694  13.833  0.00  0.00    +0.241 C 
ATOM     18  O   ASP A   8      27.292  25.469  14.306  0.00  0.00    -0.273 OA
ATOM     19  N   THR A   9      29.423  24.754  14.070  0.00  0.00    -0.295 N 
ATOM     20  H   THR A   9      30.033  24.034  13.633  0.00  0.00    +0.150 HD
BRANCH  19  21
ATOM     21  CA  THR A   9      30.048  25.764  14.901  0.00  0.00    +0.176 C 
BRANCH  21  22
ATOM     22  C   THR A   9      30.549  26.869  13.987  0.00  0.00    +0.243 C 
ATOM     23  N   VAL A  10      30.097  28.095  14.259  0.00  0.00    -0.298 N 
ATOM     24  H   VAL A  10      29.539  28.246  15.123  0.00  0.00    +0.150 HD
ATOM     25  O   THR A   9      31.312  26.610  13.040  0.00  0.00    -0.273 OA
BRANCH  23  26
ATOM     26  CA  VAL A  10      30.361  29.229  13.383  0.00  0.00    +0.137 C 
BRANCH  26  27
ATOM     27  CB  VAL A  10      29.086  29.654  12.612  0.00  0.00    +0.026 C 
ATOM     28  CG2 VAL A  10      28.398  28.429  12.028  0.00  0.00    +0.002 C 
ATOM     29  CG1 VAL A  10      29.433  30.626  11.505  0.00  0.00    +0.002 C 
ENDBRANCH  26  27
BRANCH  26  30
ATOM     30  C   VAL A  10      30.893  30.383  14.228  0.00  0.00    +0.227 C 
ATOM     31  O   VAL A  10      30.215  30.840  15.144  0.00  0.00    -0.286 OA
ENDBRANCH  26  30
ENDBRANCH  23  26
ENDBRANCH  21  22
BRANCH  21  32
ATOM     32  CB  THR A   9      31.199  25.139  15.718  0.00  0.00    +0.137 C 
ATOM     33  CG2 THR A   9      32.013  26.182  16.456  0.00  0.00    +0.034 C 
BRANCH  32  34
ATOM     34  OG1 THR A   9      30.644  24.230  16.665  0.00  0.00    -0.382 OA
ATOM     35  HG1 THR A   9      30.146  23.521  16.187  0.00  0.00    +0.210 HD
ENDBRANCH  32  34
ENDBRANCH  21  32
ENDBRANCH  19  21
ENDBRANCH  16  17
BRANCH  16  36
ATOM     36  CB  ASP A   8      27.912  24.084  11.445  0.00  0.00    +0.143 C 
BRANCH  36  37
ATOM     37  CG  ASP A   8      27.437  23.096  10.395  0.00  0.00    +0.367 C 
ATOM     38  OD2 ASP A   8      27.466  21.875  10.639  0.00  0.00    -0.246 OA
ATOM     39  OD1 ASP A   8      27.057  23.555   9.306  0.00  0.00    -0.246 OA
ENDBRANCH  36  37
ENDBRANCH  16  36
ENDBRANCH  14  16
ENDBRANCH  11  12
BRANCH  11  40
ATOM     40  CB  ASP A   7      24.009  21.583  11.833  0.00  0.00    +0.143 C 
BRANCH  40  41
ATOM     41  CG  ASP A   7      22.542  21.409  11.519  0.00  0.00    +0.367 C 
ATOM     42  OD2 ASP A   7      21.701  21.213  12.429  0.00  0.00    -0.246 OA
ATOM     43  OD1 ASP A   7      22.236  21.439  10.319  0.00  0.00    -0.246 OA
ENDBRANCH  40  41
ENDBRANCH  11  40
ENDBRANCH   9  11
ENDBRANCH   5   7
ENDBRANCH   2   5
BRANCH   1  44
ATOM     44  CA  GLY A   5      19.677  24.951  17.014  0.00  0.00    +0.176 C 
BRANCH  44  46
ATOM     45  C   THR A   4      20.742  23.589  18.753  0.00  0.00    +0.243 C 
ATOM     46  N   GLY A   5      20.324  24.776  18.324  0.00  0.00    -0.295 N 
ATOM     47  H   GLY A   5      20.459  25.608  18.934  0.00  0.00    +0.150 HD
ATOM     48  O   THR A   4      20.552  22.561  18.117  0.00  0.00    -0.273 OA
BRANCH  45  49
ATOM     49  CA  THR A   4      21.502  23.546  20.094  0.00  0.00    +0.176 C 
BRANCH  49  51
ATOM     50  C   ASP A   3      23.001  25.438  19.812  0.00  0.00    +0.241 C 
ATOM     51  N   THR A   4      22.026  24.851  20.499  0.00  0.00    -0.295 N 
ATOM     52  H   THR A   4      21.630  25.326  21.336  0.00  0.00    +0.150 HD
ATOM     53  O   ASP A   3      23.512  24.925  18.808  0.00  0.00    -0.273 OA
BRANCH  50  54
ATOM     54  CA  ASP A   3      23.454  26.800  20.332  0.00  0.00    +0.160 C 
BRANCH  54  57
ATOM     55  C   LEU A   2      24.547  27.171  22.484  0.00  0.00    +0.241 C 
ATOM     56  O   LEU A   2      23.530  27.602  23.027  0.00  0.00    -0.273 OA
ATOM     57  N   ASP A   3      24.561  26.635  21.266  0.00  0.00    -0.297 N 
ATOM     58  H   ASP A   3      25.389  26.080  20.971  0.00  0.00    +0.150 HD
BRANCH  55  59
ATOM     59  CA  LEU A   2      25.892  27.253  23.184  0.00  0.00    +0.149 C 
BRANCH  59  61
ATOM     60  C   LEU A   1      26.663  29.378  22.255  0.00  0.00    +0.238 C 
ATOM     61  N   LEU A   2      26.258  28.666  23.304  0.00  0.00    -0.297 N 
ATOM     62  H   LEU A   2      26.200  29.126  24.235  0.00  0.00    +0.150 HD
ATOM     63  O   LEU A   1      26.850  28.893  21.129  0.00  0.00    -0.274 OA
BRANCH  60  64
ATOM     64  CA  LEU A   1      26.872  30.864  22.496  0.00  0.00    +0.145 C 
BRANCH  64  65
ATOM     65  N   LEU A   1      28.211  31.265  22.103  0.00  0.00    -0.238 NA
ATOM     66  H   LEU A   1      28.398  31.447  21.096  0.00  0.00    +0.142 HD
ENDBRANCH  64  65
BRANCH  64  67
ATOM     67  CB  LEU A   1      25.860  31.654  21.668  0.00  0.00    +0.026 C 
BRANCH  67  68
ATOM     68  CG  LEU A   1      24.367  31.466  21.932  0.00  0.00    +0.002 C 
ATOM     69  CD2 LEU A   1      23.958  32.052  23.255  0.00  0.00    +0.000 C 
ATOM     70  CD1 LEU A   1      23.586  32.113  20.784  0.00  0.00    +0.000 C 
ENDBRANCH  67  68
ENDBRANCH  64  67
ENDBRANCH  60  64
ENDBRANCH  59  61
BRANCH  59  71
ATOM     71  CB  LEU A   2      25.853  26.574  24.555  0.00  0.00    +0.029 C 
BRANCH  71  72
ATOM     72  CG  LEU A   2      27.147  26.651  25.368  0.00  0.00    +0.002 C 
ATOM     73  CD2 LEU A   2      26.932  26.008  26.725  0.00  0.00    +0.000 C 
ATOM     74  CD1 LEU A   2      28.308  25.999  24.633  0.00  0.00    +0.000 C 
ENDBRANCH  71  72
ENDBRANCH  59  71
ENDBRANCH  55  59
ENDBRANCH  54  57
BRANCH  54  75
ATOM     75  CB  ASP A   3      23.927  27.706  19.184  0.00  0.00    +0.143 C 
BRANCH  75  76
ATOM     76  CG  ASP A   3      22.818  28.125  18.251  0.00  0.00    +0.367 C 
ATOM     77  OD2 ASP A   3      21.672  27.599  18.339  0.00  0.00    -0.246 OA
ATOM     78  OD1 ASP A   3      23.112  29.008  17.422  0.00  0.00    -0.246 OA
ENDBRANCH  75  76
ENDBRANCH  54  75
ENDBRANCH  50  54
ENDBRANCH  49  51
BRANCH  49  79
ATOM     79  CB  THR A   4      20.595  22.945  21.178  0.00  0.00    +0.137 C 
ATOM     80  CG2 THR A   4      21.386  22.725  22.483  0.00  0.00    +0.034 C 
BRANCH  79  81
ATOM     81  OG1 THR A   4      19.475  23.805  21.410  0.00  0.00    -0.382 OA
ATOM     82  HG1 THR A   4      18.959  23.906  20.571  0.00  0.00    +0.210 HD
ENDBRANCH  79  81
ENDBRANCH  49  79
ENDBRANCH  45  49
ENDBRANCH  44  46
ENDBRANCH   1  44
TORSDOF 35
REMARK  Name = ../refined-set-2016/2psu/2psu_pocket.pdb
REMARK  219 active torsions:
REMARK  status: ('A' for Active; 'I' for Inactive)
REMARK    1  A    between atoms: _1  and  _3
REMARK    2  A    between atoms: _3  and  _4
REMARK    3  A    between atoms: _3  and  _6
REMARK    4  A    between atoms: _6  and  _7
REMARK    5  A    between atoms: _7  and  _8
REMARK    6  A    between atoms: _8  and  _9
REMARK    7  A    between atoms: _18  and  _20
REMARK    8  A    between atoms: _20  and  _21
REMARK    9  A    between atoms: _20  and  _23
REMARK   10  A    between atoms: _23  and  _24
REMARK   11  A    between atoms: _27  and  _29
REMARK   12  A    between atoms: _29  and  _30
REMARK   13  A    between atoms: _29  and  _32
REMARK   14  A    between atoms: _32  and  _33
REMARK   15  A    between atoms: _36  and  _38
REMARK   16  A    between atoms: _38  and  _39
REMARK   17  A    between atoms: _38  and  _41
REMARK   18  A    between atoms: _41  and  _42
REMARK   19  A    between atoms: _45  and  _47
REMARK   20  A    between atoms: _47  and  _48
REMARK   21  A    between atoms: _47  and  _50
REMARK   22  A    between atoms: _50  and  _51
REMARK   23  A    between atoms: _54  and  _56
REMARK   24  A    between atoms: _56  and  _57
REMARK   25  A    between atoms: _59  and  _61
REMARK   26  A    between atoms: _61  and  _62
REMARK   27  A    between atoms: _65  and  _67
REMARK   28  A    between atoms: _67  and  _68
REMARK   29  A    between atoms: _67  and  _70
REMARK   30  A    between atoms: _70  and  _71
REMARK   31  A    between atoms: _74  and  _76
REMARK   32  A    between atoms: _76  and  _77
REMARK   33  A    between atoms: _76  and  _79
REMARK   34  A    between atoms: _79  and  _80
REMARK   35  A    between atoms: _83  and  _85
REMARK   36  A    between atoms: _85  and  _86
REMARK   37  A    between atoms: _85  and  _88
REMARK   38  A    between atoms: _88  and  _89
REMARK   39  A    between atoms: _92  and  _94
REMARK   40  A    between atoms: _94  and  _95
REMARK   41  A    between atoms: _94  and  _97
REMARK   42  A    between atoms: _100  and  _102
REMARK   43  A    between atoms: _102  and  _103
REMARK   44  A    between atoms: _102  and  _105
REMARK   45  A    between atoms: _105  and  _106
REMARK   46  A    between atoms: _106  and  _107
REMARK   47  A    between atoms: _109  and  _111
REMARK   48  A    between atoms: _111  and  _112
REMARK   49  A    between atoms: _111  and  _114
REMARK   50  A    between atoms: _114  and  _115
REMARK   51  A    between atoms: _118  and  _120
REMARK   52  A    between atoms: _120  and  _121
REMARK   53  A    between atoms: _123  and  _125
REMARK   54  A    between atoms: _125  and  _126
REMARK   55  A    between atoms: _128  and  _130
REMARK   56  A    between atoms: _130  and  _131
REMARK   57  A    between atoms: _130  and  _133
REMARK   58  A    between atoms: _133  and  _134
REMARK   59  A    between atoms: _137  and  _139
REMARK   60  A    between atoms: _139  and  _140
REMARK   61  A    between atoms: _142  and  _144
REMARK   62  A    between atoms: _144  and  _145
REMARK   63  A    between atoms: _147  and  _149
REMARK   64  A    between atoms: _149  and  _150
REMARK   65  A    between atoms: _149  and  _152
REMARK   66  A    between atoms: _152  and  _153
REMARK   67  A    between atoms: _159  and  _161
REMARK   68  A    between atoms: _161  and  _162
REMARK   69  A    between atoms: _161  and  _164
REMARK   70  A    between atoms: _164  and  _165
REMARK   71  A    between atoms: _168  and  _170
REMARK   72  A    between atoms: _170  and  _171
REMARK   73  A    between atoms: _170  and  _173
REMARK   74  A    between atoms: _173  and  _174
REMARK   75  A    between atoms: _177  and  _179
REMARK   76  A    between atoms: _179  and  _180
REMARK   77  A    between atoms: _179  and  _182
REMARK   78  A    between atoms: _182  and  _183
REMARK   79  A    between atoms: _187  and  _188
REMARK   80  A    between atoms: _193  and  _195
REMARK   81  A    between atoms: _195  and  _196
REMARK   82  A    between atoms: _195  and  _198
REMARK   83  A    between atoms: _201  and  _203
REMARK   84  A    between atoms: _203  and  _204
REMARK   85  A    between atoms: _203  and  _206
REMARK   86  A    between atoms: _206  and  _207
REMARK   87  A    between atoms: _212  and  _214
REMARK   88  A    between atoms: _214  and  _215
REMARK   89  A    between atoms: _214  and  _217
REMARK   90  A    between atoms: _217  and  _218
REMARK   91  A    between atoms: _221  and  _223
REMARK   92  A    between atoms: _223  and  _224
REMARK   93  A    between atoms: _223  and  _226
REMARK   94  A    between atoms: _226  and  _227
REMARK   95  A    between atoms: _230  and  _232
REMARK   96  A    between atoms: _232  and  _233
REMARK   97  A    between atoms: _235  and  _237
REMARK   98  A    between atoms: _237  and  _238
REMARK   99  A    between atoms: _237  and  _240
REMARK  100  A    between atoms: _240  and  _241
REMARK  101  A    between atoms: _241  and  _242
REMARK  102  A    between atoms: _242  and  _243
REMARK  103  A    between atoms: _252  and  _254
REMARK  104  A    between atoms: _254  and  _255
REMARK  105  A    between atoms: _254  and  _257
REMARK  106  A    between atoms: _257  and  _258
REMARK  107  A    between atoms: _263  and  _265
REMARK  108  A    between atoms: _265  and  _266
REMARK  109  A    between atoms: _265  and  _268
REMARK  110  A    between atoms: _268  and  _269
REMARK  111  A    between atoms: _269  and  _270
REMARK  112  A    between atoms: _270  and  _271
REMARK  113  A    between atoms: _280  and  _282
REMARK  114  A    between atoms: _282  and  _283
REMARK  115  A    between atoms: _282  and  _285
REMARK  116  A    between atoms: _285  and  _286
REMARK  117  A    between atoms: _289  and  _291
REMARK  118  A    between atoms: _291  and  _292
REMARK  119  A    between atoms: _291  and  _294
REMARK  120  A    between atoms: _294  and  _295
REMARK  121  A    between atoms: _298  and  _300
REMARK  122  A    between atoms: _300  and  _301
REMARK  123  A    between atoms: _300  and  _303
REMARK  124  A    between atoms: _303  and  _304
REMARK  125  A    between atoms: _307  and  _309
REMARK  126  A    between atoms: _309  and  _310
REMARK  127  A    between atoms: _309  and  _312
REMARK  128  A    between atoms: _312  and  _313
REMARK  129  A    between atoms: _316  and  _318
REMARK  130  A    between atoms: _318  and  _319
REMARK  131  A    between atoms: _321  and  _323
REMARK  132  A    between atoms: _323  and  _324
REMARK  133  A    between atoms: _327  and  _329
REMARK  134  A    between atoms: _329  and  _330
REMARK  135  A    between atoms: _329  and  _332
REMARK  136  A    between atoms: _332  and  _333
REMARK  137  A    between atoms: _336  and  _338
REMARK  138  A    between atoms: _338  and  _339
REMARK  139  A    between atoms: _338  and  _341
REMARK  140  A    between atoms: _341  and  _342
REMARK  141  A    between atoms: _345  and  _347
REMARK  142  A    between atoms: _347  and  _348
REMARK  143  A    between atoms: _347  and  _350
REMARK  144  A    between atoms: _350  and  _351
REMARK  145  A    between atoms: _354  and  _356
REMARK  146  A    between atoms: _356  and  _357
REMARK  147  A    between atoms: _356  and  _359
REMARK  148  A    between atoms: _362  and  _364
REMARK  149  A    between atoms: _364  and  _365
REMARK  150  A    between atoms: _364  and  _367
REMARK  151  A    between atoms: _367  and  _368
REMARK  152  A    between atoms: _368  and  _369
REMARK  153  A    between atoms: _369  and  _370
REMARK  154  A    between atoms: _370  and  _371
REMARK  155  A    between atoms: _375  and  _377
REMARK  156  A    between atoms: _377  and  _378
REMARK  157  A    between atoms: _377  and  _380
REMARK  158  A    between atoms: _380  and  _381
REMARK  159  A    between atoms: _381  and  _382
REMARK  160  A    between atoms: _384  and  _386
REMARK  161  A    between atoms: _386  and  _387
REMARK  162  A    between atoms: _386  and  _389
REMARK  163  A    between atoms: _389  and  _390
REMARK  164  A    between atoms: _393  and  _395
REMARK  165  A    between atoms: _395  and  _396
REMARK  166  A    between atoms: _398  and  _400
REMARK  167  A    between atoms: _400  and  _401
REMARK  168  A    between atoms: _403  and  _405
REMARK  169  A    between atoms: _405  and  _406
REMARK  170  A    between atoms: _405  and  _408
REMARK  171  A    between atoms: _408  and  _409
REMARK  172  A    between atoms: _412  and  _414
REMARK  173  A    between atoms: _414  and  _415
REMARK  174  A    between atoms: _417  and  _419
REMARK  175  A    between atoms: _419  and  _420
REMARK  176  A    between atoms: _422  and  _424
REMARK  177  A    between atoms: _424  and  _425
REMARK  178  A    between atoms: _424  and  _427
REMARK  179  A    between atoms: _427  and  _428
REMARK  180  A    between atoms: _434  and  _436
REMARK  181  A    between atoms: _436  and  _437
REMARK  182  A    between atoms: _436  and  _439
REMARK  183  A    between atoms: _439  and  _440
REMARK  184  A    between atoms: _443  and  _445
REMARK  185  A    between atoms: _445  and  _446
REMARK  186  A    between atoms: _445  and  _448
REMARK  187  A    between atoms: _448  and  _449
REMARK  188  A    between atoms: _452  and  _454
REMARK  189  A    between atoms: _454  and  _455
REMARK  190  A    between atoms: _454  and  _457
REMARK  191  A    between atoms: _457  and  _458
REMARK  192  A    between atoms: _462  and  _463
REMARK  193  A    between atoms: _468  and  _470
REMARK  194  A    between atoms: _470  and  _471
REMARK  195  A    between atoms: _470  and  _473
REMARK  196  A    between atoms: _476  and  _478
REMARK  197  A    between atoms: _478  and  _479
REMARK  198  A    between atoms: _478  and  _481
REMARK  199  A    between atoms: _481  and  _482
REMARK  200  A    between atoms: _487  and  _489
REMARK  201  A    between atoms: _489  and  _490
REMARK  202  A    between atoms: _489  and  _492
REMARK  203  A    between atoms: _492  and  _493
REMARK  204  A    between atoms: _496  and  _498
REMARK  205  A    between atoms: _498  and  _499
REMARK  206  A    between atoms: _498  and  _501
REMARK  207  A    between atoms: _501  and  _502
REMARK  208  A    between atoms: _505  and  _507
REMARK  209  A    between atoms: _507  and  _508
REMARK  210  A    between atoms: _510  and  _512
REMARK  211  A    between atoms: _512  and  _513
REMARK  212  A    between atoms: _512  and  _515
REMARK  213  A    between atoms: _515  and  _516
REMARK  214  A    between atoms: _516  and  _517
REMARK  215  A    between atoms: _517  and  _518
REMARK  216  A    between atoms: _527  and  _529
REMARK  217  A    between atoms: _529  and  _530
REMARK  218  A    between atoms: _529  and  _532
REMARK  219  A    between atoms: _532  and  _533
REMARK                            x       y       z     vdW  Elec       q    Type
REMARK                         _______ _______ _______ _____ _____    ______ ____
ROOT
ATOM      1  CA  ILE A   5      17.077  32.070   9.550  0.00  0.00    +0.149 C 
ENDROOT
BRANCH   1   3
ATOM      2  C   GLY A   4      18.905  30.832   8.586  0.00  0.00    +0.243 C 
ATOM      3  N   ILE A   5      18.450  31.615   9.559  0.00  0.00    -0.297 N 
ATOM      4  H   ILE A   5      19.085  31.902  10.331  0.00  0.00    +0.150 HD
ATOM      5  O   GLY A   4      18.284  30.641   7.516  0.00  0.00    -0.273 OA
BRANCH   2   6
ATOM      6  CA  GLY A   4      20.270  30.223   8.817  0.00  0.00    +0.176 C 
BRANCH   6   9
ATOM      7  C   GLY A   3      21.510  28.789   7.274  0.00  0.00    +0.243 C 
ATOM      8  O   GLY A   3      21.750  27.914   8.124  0.00  0.00    -0.273 OA
ATOM      9  N   GLY A   4      20.884  29.932   7.542  0.00  0.00    -0.295 N 
ATOM     10  H   GLY A   4      20.834  30.654   6.795  0.00  0.00    +0.150 HD
BRANCH   7  11
ATOM     11  CA  GLY A   3      21.939  28.631   5.825  0.00  0.00    +0.176 C 
BRANCH  11  13
ATOM     12  C   ILE A   2      24.330  28.533   5.341  0.00  0.00    +0.241 C 
ATOM     13  N   GLY A   3      23.193  27.924   5.666  0.00  0.00    -0.295 N 
ATOM     14  H   GLY A   3      23.205  26.894   5.812  0.00  0.00    +0.150 HD
ATOM     15  O   ILE A   2      24.440  29.762   5.147  0.00  0.00    -0.273 OA
BRANCH  12  16
ATOM     16  CA  ILE A   2      25.531  27.610   5.236  0.00  0.00    +0.148 C 
BRANCH  16  18
ATOM     17  C   MET A   1      27.066  27.331   3.363  0.00  0.00    +0.238 C 
ATOM     18  N   ILE A   2      26.515  28.118   4.284  0.00  0.00    -0.297 N 
ATOM     19  H   ILE A   2      26.792  29.120   4.327  0.00  0.00    +0.150 HD
ATOM     20  O   MET A   1      26.883  26.109   3.305  0.00  0.00    -0.274 OA
BRANCH  17  21
ATOM     21  CA  MET A   1      27.978  28.011   2.368  0.00  0.00    +0.146 C 
BRANCH  21  22
ATOM     22  N   MET A   1      29.144  27.163   2.122  0.00  0.00    -0.238 NA
ATOM     23  H   MET A   1      29.000  26.173   1.839  0.00  0.00    +0.142 HD
ENDBRANCH  21  22
BRANCH  21  24
ATOM     24  CB  MET A   1      27.233  28.290   1.071  0.00  0.00    +0.038 C 
BRANCH  24  25
ATOM     25  CG  MET A   1      27.999  29.195   0.121  0.00  0.00    +0.060 C 
BRANCH  25  26
ATOM     26  SD  MET A   1      27.182  29.449  -1.468  0.00  0.00    -0.139 S 
ATOM     27  CE  MET A   1      25.713  30.362  -0.981  0.00  0.00    +0.069 C 
ENDBRANCH  25  26
ENDBRANCH  24  25
ENDBRANCH  21  24
ENDBRANCH  17  21
ENDBRANCH  16  18
BRANCH  16  28
ATOM     28  CB  ILE A   2      26.128  27.400   6.637  0.00  0.00    +0.027 C 
ATOM     29  CG2 ILE A   2      27.205  26.329   6.595  0.00  0.00    +0.002 C 
BRANCH  28  30
ATOM     30  CG1 ILE A   2      26.690  28.720   7.199  0.00  0.00    +0.002 C 
ATOM     31  CD1 ILE A   2      27.058  28.630   8.652  0.00  0.00    +0.000 C 
ENDBRANCH  28  30
ENDBRANCH  16  28
ENDBRANCH  12  16
ENDBRANCH  11  13
ENDBRANCH   7  11
ENDBRANCH   6   9
ENDBRANCH   2   6
ENDBRANCH   1   3
BRANCH   1  32
ATOM     32  C   ILE A   5      16.837  33.108   8.449  0.00  0.00    +0.241 C 
ATOM     33  N   GLY A   6      17.868  33.877   8.111  0.00  0.00    -0.295 N 
ATOM     34  H   GLY A   6      18.795  33.686   8.543  0.00  0.00    +0.150 HD
ATOM     35  O   ILE A   5      15.737  33.188   7.921  0.00  0.00    -0.273 OA
BRANCH  33  36
ATOM     36  CA  GLY A   6      17.754  34.977   7.161  0.00  0.00    +0.176 C 
BRANCH  36  37
ATOM     37  C   GLY A   6      18.306  34.707   5.772  0.00  0.00    +0.243 C 
ATOM     38  N   GLY A   7      18.791  33.494   5.545  0.00  0.00    -0.295 N 
ATOM     39  H   GLY A   7      18.782  32.795   6.315  0.00  0.00    +0.150 HD
ATOM     40  O   GLY A   6      18.271  35.586   4.906  0.00  0.00    -0.273 OA
BRANCH  38  41
ATOM     41  CA  GLY A   7      19.334  33.111   4.255  0.00  0.00    +0.176 C 
BRANCH  41  42
ATOM     42  C   GLY A   7      20.686  32.462   4.399  0.00  0.00    +0.243 C 
ATOM     43  O   GLY A   7      21.021  31.950   5.471  0.00  0.00    -0.273 OA
ATOM     44  N   PHE A   8      21.481  32.529   3.335  0.00  0.00    -0.297 N 
ATOM     45  H   PHE A   8      21.173  33.084   2.511  0.00  0.00    +0.150 HD
BRANCH  44  46
ATOM     46  CA  PHE A   8      22.772  31.848   3.286  0.00  0.00    +0.153 C 
BRANCH  46  47
ATOM     47  C   PHE A   8      23.940  32.803   3.328  0.00  0.00    +0.241 C 
ATOM     48  N   ILE A   9      25.031  32.309   3.907  0.00  0.00    -0.298 N 
ATOM     49  H   ILE A   9      24.980  31.366   4.343  0.00  0.00    +0.150 HD
ATOM     50  O   PHE A   8      23.864  33.947   2.823  0.00  0.00    -0.273 OA
BRANCH  48  51
ATOM     51  CA  ILE A   9      26.294  33.033   3.956  0.00  0.00    +0.137 C 
BRANCH  51  52
ATOM     52  CB  ILE A   9      26.618  33.545   5.401  0.00  0.00    +0.026 C 
ATOM     53  CG2 ILE A   9      25.538  34.520   5.861  0.00  0.00    +0.002 C 
BRANCH  52  54
ATOM     54  CG1 ILE A   9      26.754  32.371   6.387  0.00  0.00    +0.002 C 
ATOM     55  CD1 ILE A   9      27.355  32.734   7.734  0.00  0.00    +0.000 C 
ENDBRANCH  52  54
ENDBRANCH  51  52
BRANCH  51  56
ATOM     56  C   ILE A   9      27.447  32.158   3.452  0.00  0.00    +0.227 C 
ATOM     57  O   ILE A   9      27.345  30.938   3.406  0.00  0.00    -0.286 OA
ENDBRANCH  51  56
ENDBRANCH  48  51
ENDBRANCH  46  47
BRANCH  46  58
ATOM     58  CB  PHE A   8      22.870  30.998   2.015  0.00  0.00    +0.055 C 
BRANCH  58  59
ATOM     59  CG  PHE A   8      22.061  29.735   2.087  0.00  0.00    -0.020 A 
ATOM     60  CD2 PHE A   8      22.678  28.510   2.253  0.00  0.00    -0.004 A 
ATOM     61  CE2 PHE A   8      21.929  27.353   2.342  0.00  0.00    -0.000 A 
ATOM     62  CZ  PHE A   8      20.553  27.421   2.274  0.00  0.00    -0.000 A 
ATOM     63  CE1 PHE A   8      19.927  28.640   2.124  0.00  0.00    -0.000 A 
ATOM     64  CD1 PHE A   8      20.676  29.785   2.036  0.00  0.00    -0.004 A 
ENDBRANCH  58  59
ENDBRANCH  46  58
ENDBRANCH  44  46
ENDBRANCH  41  42
ENDBRANCH  38  41
ENDBRANCH  36  37
ENDBRANCH  33  36
ENDBRANCH   1  32
BRANCH   1  65
ATOM     65  CB  ILE A   5      16.628  32.606  10.941  0.00  0.00    +0.027 C 
ATOM     66  CG2 ILE A   5      17.095  34.041  11.150  0.00  0.00    +0.002 C 
BRANCH  65  67
ATOM     67  CG1 ILE A   5      15.103  32.485  11.077  0.00  0.00    +0.002 C 
ATOM     68  CD1 ILE A   5      14.544  32.864  12.458  0.00  0.00    +0.000 C 
ENDBRANCH  65  67
ENDBRANCH   1  65
TORSDOF 29
REMARK  Name = ../refined-set-2016/2psu/2psu_pocket.pdb
REMARK  219 active torsions:
REMARK  status: ('A' for Active; 'I' for Inactive)
REMARK    1  A    between atoms: _1  and  _3
REMARK    2  A    between atoms: _3  and  _4
REMARK    3  A    between atoms: _3  and  _6
REMARK    4  A    between atoms: _6  and  _7
REMARK    5  A    between atoms: _7  and  _8
REMARK    6  A    between atoms: _8  and  _9
REMARK    7  A    between atoms: _18  and  _20
REMARK    8  A    between atoms: _20  and  _21
REMARK    9  A    between atoms: _20  and  _23
REMARK   10  A    between atoms: _23  and  _24
REMARK   11  A    between atoms: _27  and  _29
REMARK   12  A    between atoms: _29  and  _30
REMARK   13  A    between atoms: _29  and  _32
REMARK   14  A    between atoms: _32  and  _33
REMARK   15  A    between atoms: _36  and  _38
REMARK   16  A    between atoms: _38  and  _39
REMARK   17  A    between atoms: _38  and  _41
REMARK   18  A    between atoms: _41  and  _42
REMARK   19  A    between atoms: _45  and  _47
REMARK   20  A    between atoms: _47  and  _48
REMARK   21  A    between atoms: _47  and  _50
REMARK   22  A    between atoms: _50  and  _51
REMARK   23  A    between atoms: _54  and  _56
REMARK   24  A    between atoms: _56  and  _57
REMARK   25  A    between atoms: _59  and  _61
REMARK   26  A    between atoms: _61  and  _62
REMARK   27  A    between atoms: _65  and  _67
REMARK   28  A    between atoms: _67  and  _68
REMARK   29  A    between atoms: _67  and  _70
REMARK   30  A    between atoms: _70  and  _71
REMARK   31  A    between atoms: _74  and  _76
REMARK   32  A    between atoms: _76  and  _77
REMARK   33  A    between atoms: _76  and  _79
REMARK   34  A    between atoms: _79  and  _80
REMARK   35  A    between atoms: _83  and  _85
REMARK   36  A    between atoms: _85  and  _86
REMARK   37  A    between atoms: _85  and  _88
REMARK   38  A    between atoms: _88  and  _89
REMARK   39  A    between atoms: _92  and  _94
REMARK   40  A    between atoms: _94  and  _95
REMARK   41  A    between atoms: _94  and  _97
REMARK   42  A    between atoms: _100  and  _102
REMARK   43  A    between atoms: _102  and  _103
REMARK   44  A    between atoms: _102  and  _105
REMARK   45  A    between atoms: _105  and  _106
REMARK   46  A    between atoms: _106  and  _107
REMARK   47  A    between atoms: _109  and  _111
REMARK   48  A    between atoms: _111  and  _112
REMARK   49  A    between atoms: _111  and  _114
REMARK   50  A    between atoms: _114  and  _115
REMARK   51  A    between atoms: _118  and  _120
REMARK   52  A    between atoms: _120  and  _121
REMARK   53  A    between atoms: _123  and  _125
REMARK   54  A    between atoms: _125  and  _126
REMARK   55  A    between atoms: _128  and  _130
REMARK   56  A    between atoms: _130  and  _131
REMARK   57  A    between atoms: _130  and  _133
REMARK   58  A    between atoms: _133  and  _134
REMARK   59  A    between atoms: _137  and  _139
REMARK   60  A    between atoms: _139  and  _140
REMARK   61  A    between atoms: _142  and  _144
REMARK   62  A    between atoms: _144  and  _145
REMARK   63  A    between atoms: _147  and  _149
REMARK   64  A    between atoms: _149  and  _150
REMARK   65  A    between atoms: _149  and  _152
REMARK   66  A    between atoms: _152  and  _153
REMARK   67  A    between atoms: _159  and  _161
REMARK   68  A    between atoms: _161  and  _162
REMARK   69  A    between atoms: _161  and  _164
REMARK   70  A    between atoms: _164  and  _165
REMARK   71  A    between atoms: _168  and  _170
REMARK   72  A    between atoms: _170  and  _171
REMARK   73  A    between atoms: _170  and  _173
REMARK   74  A    between atoms: _173  and  _174
REMARK   75  A    between atoms: _177  and  _179
REMARK   76  A    between atoms: _179  and  _180
REMARK   77  A    between atoms: _179  and  _182
REMARK   78  A    between atoms: _182  and  _183
REMARK   79  A    between atoms: _187  and  _188
REMARK   80  A    between atoms: _193  and  _195
REMARK   81  A    between atoms: _195  and  _196
REMARK   82  A    between atoms: _195  and  _198
REMARK   83  A    between atoms: _201  and  _203
REMARK   84  A    between atoms: _203  and  _204
REMARK   85  A    between atoms: _203  and  _206
REMARK   86  A    between atoms: _206  and  _207
REMARK   87  A    between atoms: _212  and  _214
REMARK   88  A    between atoms: _214  and  _215
REMARK   89  A    between atoms: _214  and  _217
REMARK   90  A    between atoms: _217  and  _218
REMARK   91  A    between atoms: _221  and  _223
REMARK   92  A    between atoms: _223  and  _224
REMARK   93  A    between atoms: _223  and  _226
REMARK   94  A    between atoms: _226  and  _227
REMARK   95  A    between atoms: _230  and  _232
REMARK   96  A    between atoms: _232  and  _233
REMARK   97  A    between atoms: _235  and  _237
REMARK   98  A    between atoms: _237  and  _238
REMARK   99  A    between atoms: _237  and  _240
REMARK  100  A    between atoms: _240  and  _241
REMARK  101  A    between atoms: _241  and  _242
REMARK  102  A    between atoms: _242  and  _243
REMARK  103  A    between atoms: _252  and  _254
REMARK  104  A    between atoms: _254  and  _255
REMARK  105  A    between atoms: _254  and  _257
REMARK  106  A    between atoms: _257  and  _258
REMARK  107  A    between atoms: _263  and  _265
REMARK  108  A    between atoms: _265  and  _266
REMARK  109  A    between atoms: _265  and  _268
REMARK  110  A    between atoms: _268  and  _269
REMARK  111  A    between atoms: _269  and  _270
REMARK  112  A    between atoms: _270  and  _271
REMARK  113  A    between atoms: _280  and  _282
REMARK  114  A    between atoms: _282  and  _283
REMARK  115  A    between atoms: _282  and  _285
REMARK  116  A    between atoms: _285  and  _286
REMARK  117  A    between atoms: _289  and  _291
REMARK  118  A    between atoms: _291  and  _292
REMARK  119  A    between atoms: _291  and  _294
REMARK  120  A    between atoms: _294  and  _295
REMARK  121  A    between atoms: _298  and  _300
REMARK  122  A    between atoms: _300  and  _301
REMARK  123  A    between atoms: _300  and  _303
REMARK  124  A    between atoms: _303  and  _304
REMARK  125  A    between atoms: _307  and  _309
REMARK  126  A    between atoms: _309  and  _310
REMARK  127  A    between atoms: _309  and  _312
REMARK  128  A    between atoms: _312  and  _313
REMARK  129  A    between atoms: _316  and  _318
REMARK  130  A    between atoms: _318  and  _319
REMARK  131  A    between atoms: _321  and  _323
REMARK  132  A    between atoms: _323  and  _324
REMARK  133  A    between atoms: _327  and  _329
REMARK  134  A    between atoms: _329  and  _330
REMARK  135  A    between atoms: _329  and  _332
REMARK  136  A    between atoms: _332  and  _333
REMARK  137  A    between atoms: _336  and  _338
REMARK  138  A    between atoms: _338  and  _339
REMARK  139  A    between atoms: _338  and  _341
REMARK  140  A    between atoms: _341  and  _342
REMARK  141  A    between atoms: _345  and  _347
REMARK  142  A    between atoms: _347  and  _348
REMARK  143  A    between atoms: _347  and  _350
REMARK  144  A    between atoms: _350  and  _351
REMARK  145  A    between atoms: _354  and  _356
REMARK  146  A    between atoms: _356  and  _357
REMARK  147  A    between atoms: _356  and  _359
REMARK  148  A    between atoms: _362  and  _364
REMARK  149  A    between atoms: _364  and  _365
REMARK  150  A    between atoms: _364  and  _367
REMARK  151  A    between atoms: _367  and  _368
REMARK  152  A    between atoms: _368  and  _369
REMARK  153  A    between atoms: _369  and  _370
REMARK  154  A    between atoms: _370  and  _371
REMARK  155  A    between atoms: _375  and  _377
REMARK  156  A    between atoms: _377  and  _378
REMARK  157  A    between atoms: _377  and  _380
REMARK  158  A    between atoms: _380  and  _381
REMARK  159  A    between atoms: _381  and  _382
REMARK  160  A    between atoms: _384  and  _386
REMARK  161  A    between atoms: _386  and  _387
REMARK  162  A    between atoms: _386  and  _389
REMARK  163  A    between atoms: _389  and  _390
REMARK  164  A    between atoms: _393  and  _395
REMARK  165  A    between atoms: _395  and  _396
REMARK  166  A    between atoms: _398  and  _400
REMARK  167  A    between atoms: _400  and  _401
REMARK  168  A    between atoms: _403  and  _405
REMARK  169  A    between atoms: _405  and  _406
REMARK  170  A    between atoms: _405  and  _408
REMARK  171  A    between atoms: _408  and  _409
REMARK  172  A    between atoms: _412  and  _414
REMARK  173  A    between atoms: _414  and  _415
REMARK  174  A    between atoms: _417  and  _419
REMARK  175  A    between atoms: _419  and  _420
REMARK  176  A    between atoms: _422  and  _424
REMARK  177  A    between atoms: _424  and  _425
REMARK  178  A    between atoms: _424  and  _427
REMARK  179  A    between atoms: _427  and  _428
REMARK  180  A    between atoms: _434  and  _436
REMARK  181  A    between atoms: _436  and  _437
REMARK  182  A    between atoms: _436  and  _439
REMARK  183  A    between atoms: _439  and  _440
REMARK  184  A    between atoms: _443  and  _445
REMARK  185  A    between atoms: _445  and  _446
REMARK  186  A    between atoms: _445  and  _448
REMARK  187  A    between atoms: _448  and  _449
REMARK  188  A    between atoms: _452  and  _454
REMARK  189  A    between atoms: _454  and  _455
REMARK  190  A    between atoms: _454  and  _457
REMARK  191  A    between atoms: _457  and  _458
REMARK  192  A    between atoms: _462  and  _463
REMARK  193  A    between atoms: _468  and  _470
REMARK  194  A    between atoms: _470  and  _471
REMARK  195  A    between atoms: _470  and  _473
REMARK  196  A    between atoms: _476  and  _478
REMARK  197  A    between atoms: _478  and  _479
REMARK  198  A    between atoms: _478  and  _481
REMARK  199  A    between atoms: _481  and  _482
REMARK  200  A    between atoms: _487  and  _489
REMARK  201  A    between atoms: _489  and  _490
REMARK  202  A    between atoms: _489  and  _492
REMARK  203  A    between atoms: _492  and  _493
REMARK  204  A    between atoms: _496  and  _498
REMARK  205  A    between atoms: _498  and  _499
REMARK  206  A    between atoms: _498  and  _501
REMARK  207  A    between atoms: _501  and  _502
REMARK  208  A    between atoms: _505  and  _507
REMARK  209  A    between atoms: _507  and  _508
REMARK  210  A    between atoms: _510  and  _512
REMARK  211  A    between atoms: _512  and  _513
REMARK  212  A    between atoms: _512  and  _515
REMARK  213  A    between atoms: _515  and  _516
REMARK  214  A    between atoms: _516  and  _517
REMARK  215  A    between atoms: _517  and  _518
REMARK  216  A    between atoms: _527  and  _529
REMARK  217  A    between atoms: _529  and  _530
REMARK  218  A    between atoms: _529  and  _532
REMARK  219  A    between atoms: _532  and  _533
REMARK                            x       y       z     vdW  Elec       q    Type
REMARK                         _______ _______ _______ _____ _____    ______ ____
ROOT
ATOM      1  CA  LEU A   1      33.312  27.658  10.232  0.00  0.00    +0.133 C 
ENDROOT
BRANCH   1   2
ATOM      2  N   LEU A   1      33.634  26.794  11.351  0.00  0.00    -0.239 NA
ATOM      3  H   LEU A   1      32.930  26.682  12.109  0.00  0.00    +0.142 HD
ENDBRANCH   1   2
BRANCH   1   4
ATOM      4  C   LEU A   1      33.499  29.104  10.672  0.00  0.00    +0.224 C 
ATOM      5  O   LEU A   1      33.081  29.477  11.773  0.00  0.00    -0.287 OA
ENDBRANCH   1   4
BRANCH   1   6
ATOM      6  CB  LEU A   1      31.865  27.427   9.767  0.00  0.00    +0.025 C 
BRANCH   6   7
ATOM      7  CG  LEU A   1      31.491  25.963   9.505  0.00  0.00    +0.002 C 
ATOM      8  CD2 LEU A   1      30.051  25.855   9.076  0.00  0.00    +0.000 C 
ATOM      9  CD1 LEU A   1      32.400  25.364   8.455  0.00  0.00    +0.000 C 
ENDBRANCH   6   7
ENDBRANCH   1   6
TORSDOF 4
REMARK  Name = ../refined-set-2016/2psu/2psu_pocket.pdb
REMARK  219 active torsions:
REMARK  status: ('A' for Active; 'I' for Inactive)
REMARK    1  A    between atoms: _1  and  _3
REMARK    2  A    between atoms: _3  and  _4
REMARK    3  A    between atoms: _3  and  _6
REMARK    4  A    between atoms: _6  and  _7
REMARK    5  A    between atoms: _7  and  _8
REMARK    6  A    between atoms: _8  and  _9
REMARK    7  A    between atoms: _18  and  _20
REMARK    8  A    between atoms: _20  and  _21
REMARK    9  A    between atoms: _20  and  _23
REMARK   10  A    between atoms: _23  and  _24
REMARK   11  A    between atoms: _27  and  _29
REMARK   12  A    between atoms: _29  and  _30
REMARK   13  A    between atoms: _29  and  _32
REMARK   14  A    between atoms: _32  and  _33
REMARK   15  A    between atoms: _36  and  _38
REMARK   16  A    between atoms: _38  and  _39
REMARK   17  A    between atoms: _38  and  _41
REMARK   18  A    between atoms: _41  and  _42
REMARK   19  A    between atoms: _45  and  _47
REMARK   20  A    between atoms: _47  and  _48
REMARK   21  A    between atoms: _47  and  _50
REMARK   22  A    between atoms: _50  and  _51
REMARK   23  A    between atoms: _54  and  _56
REMARK   24  A    between atoms: _56  and  _57
REMARK   25  A    between atoms: _59  and  _61
REMARK   26  A    between atoms: _61  and  _62
REMARK   27  A    between atoms: _65  and  _67
REMARK   28  A    between atoms: _67  and  _68
REMARK   29  A    between atoms: _67  and  _70
REMARK   30  A    between atoms: _70  and  _71
REMARK   31  A    between atoms: _74  and  _76
REMARK   32  A    between atoms: _76  and  _77
REMARK   33  A    between atoms: _76  and  _79
REMARK   34  A    between atoms: _79  and  _80
REMARK   35  A    between atoms: _83  and  _85
REMARK   36  A    between atoms: _85  and  _86
REMARK   37  A    between atoms: _85  and  _88
REMARK   38  A    between atoms: _88  and  _89
REMARK   39  A    between atoms: _92  and  _94
REMARK   40  A    between atoms: _94  and  _95
REMARK   41  A    between atoms: _94  and  _97
REMARK   42  A    between atoms: _100  and  _102
REMARK   43  A    between atoms: _102  and  _103
REMARK   44  A    between atoms: _102  and  _105
REMARK   45  A    between atoms: _105  and  _106
REMARK   46  A    between atoms: _106  and  _107
REMARK   47  A    between atoms: _109  and  _111
REMARK   48  A    between atoms: _111  and  _112
REMARK   49  A    between atoms: _111  and  _114
REMARK   50  A    between atoms: _114  and  _115
REMARK   51  A    between atoms: _118  and  _120
REMARK   52  A    between atoms: _120  and  _121
REMARK   53  A    between atoms: _123  and  _125
REMARK   54  A    between atoms: _125  and  _126
REMARK   55  A    between atoms: _128  and  _130
REMARK   56  A    between atoms: _130  and  _131
REMARK   57  A    between atoms: _130  and  _133
REMARK   58  A    between atoms: _133  and  _134
REMARK   59  A    between atoms: _137  and  _139
REMARK   60  A    between atoms: _139  and  _140
REMARK   61  A    between atoms: _142  and  _144
REMARK   62  A    between atoms: _144  and  _145
REMARK   63  A    between atoms: _147  and  _149
REMARK   64  A    between atoms: _149  and  _150
REMARK   65  A    between atoms: _149  and  _152
REMARK   66  A    between atoms: _152  and  _153
REMARK   67  A    between atoms: _159  and  _161
REMARK   68  A    between atoms: _161  and  _162
REMARK   69  A    between atoms: _161  and  _164
REMARK   70  A    between atoms: _164  and  _165
REMARK   71  A    between atoms: _168  and  _170
REMARK   72  A    between atoms: _170  and  _171
REMARK   73  A    between atoms: _170  and  _173
REMARK   74  A    between atoms: _173  and  _174
REMARK   75  A    between atoms: _177  and  _179
REMARK   76  A    between atoms: _179  and  _180
REMARK   77  A    between atoms: _179  and  _182
REMARK   78  A    between atoms: _182  and  _183
REMARK   79  A    between atoms: _187  and  _188
REMARK   80  A    between atoms: _193  and  _195
REMARK   81  A    between atoms: _195  and  _196
REMARK   82  A    between atoms: _195  and  _198
REMARK   83  A    between atoms: _201  and  _203
REMARK   84  A    between atoms: _203  and  _204
REMARK   85  A    between atoms: _203  and  _206
REMARK   86  A    between atoms: _206  and  _207
REMARK   87  A    between atoms: _212  and  _214
REMARK   88  A    between atoms: _214  and  _215
REMARK   89  A    between atoms: _214  and  _217
REMARK   90  A    between atoms: _217  and  _218
REMARK   91  A    between atoms: _221  and  _223
REMARK   92  A    between atoms: _223  and  _224
REMARK   93  A    between atoms: _223  and  _226
REMARK   94  A    between atoms: _226  and  _227
REMARK   95  A    between atoms: _230  and  _232
REMARK   96  A    between atoms: _232  and  _233
REMARK   97  A    between atoms: _235  and  _237
REMARK   98  A    between atoms: _237  and  _238
REMARK   99  A    between atoms: _237  and  _240
REMARK  100  A    between atoms: _240  and  _241
REMARK  101  A    between atoms: _241  and  _242
REMARK  102  A    between atoms: _242  and  _243
REMARK  103  A    between atoms: _252  and  _254
REMARK  104  A    between atoms: _254  and  _255
REMARK  105  A    between atoms: _254  and  _257
REMARK  106  A    between atoms: _257  and  _258
REMARK  107  A    between atoms: _263  and  _265
REMARK  108  A    between atoms: _265  and  _266
REMARK  109  A    between atoms: _265  and  _268
REMARK  110  A    between atoms: _268  and  _269
REMARK  111  A    between atoms: _269  and  _270
REMARK  112  A    between atoms: _270  and  _271
REMARK  113  A    between atoms: _280  and  _282
REMARK  114  A    between atoms: _282  and  _283
REMARK  115  A    between atoms: _282  and  _285
REMARK  116  A    between atoms: _285  and  _286
REMARK  117  A    between atoms: _289  and  _291
REMARK  118  A    between atoms: _291  and  _292
REMARK  119  A    between atoms: _291  and  _294
REMARK  120  A    between atoms: _294  and  _295
REMARK  121  A    between atoms: _298  and  _300
REMARK  122  A    between atoms: _300  and  _301
REMARK  123  A    between atoms: _300  and  _303
REMARK  124  A    between atoms: _303  and  _304
REMARK  125  A    between atoms: _307  and  _309
REMARK  126  A    between atoms: _309  and  _310
REMARK  127  A    between atoms: _309  and  _312
REMARK  128  A    between atoms: _312  and  _313
REMARK  129  A    between atoms: _316  and  _318
REMARK  130  A    between atoms: _318  and  _319
REMARK  131  A    between atoms: _321  and  _323
REMARK  132  A    between atoms: _323  and  _324
REMARK  133  A    between atoms: _327  and  _329
REMARK  134  A    between atoms: _329  and  _330
REMARK  135  A    between atoms: _329  and  _332
REMARK  136  A    between atoms: _332  and  _333
REMARK  137  A    between atoms: _336  and  _338
REMARK  138  A    between atoms: _338  and  _339
REMARK  139  A    between atoms: _338  and  _341
REMARK  140  A    between atoms: _341  and  _342
REMARK  141  A    between atoms: _345  and  _347
REMARK  142  A    between atoms: _347  and  _348
REMARK  143  A    between atoms: _347  and  _350
REMARK  144  A    between atoms: _350  and  _351
REMARK  145  A    between atoms: _354  and  _356
REMARK  146  A    between atoms: _356  and  _357
REMARK  147  A    between atoms: _356  and  _359
REMARK  148  A    between atoms: _362  and  _364
REMARK  149  A    between atoms: _364  and  _365
REMARK  150  A    between atoms: _364  and  _367
REMARK  151  A    between atoms: _367  and  _368
REMARK  152  A    between atoms: _368  and  _369
REMARK  153  A    between atoms: _369  and  _370
REMARK  154  A    between atoms: _370  and  _371
REMARK  155  A    between atoms: _375  and  _377
REMARK  156  A    between atoms: _377  and  _378
REMARK  157  A    between atoms: _377  and  _380
REMARK  158  A    between atoms: _380  and  _381
REMARK  159  A    between atoms: _381  and  _382
REMARK  160  A    between atoms: _384  and  _386
REMARK  161  A    between atoms: _386  and  _387
REMARK  162  A    between atoms: _386  and  _389
REMARK  163  A    between atoms: _389  and  _390
REMARK  164  A    between atoms: _393  and  _395
REMARK  165  A    between atoms: _395  and  _396
REMARK  166  A    between atoms: _398  and  _400
REMARK  167  A    between atoms: _400  and  _401
REMARK  168  A    between atoms: _403  and  _405
REMARK  169  A    between atoms: _405  and  _406
REMARK  170  A    between atoms: _405  and  _408
REMARK  171  A    between atoms: _408  and  _409
REMARK  172  A    between atoms: _412  and  _414
REMARK  173  A    between atoms: _414  and  _415
REMARK  174  A    between atoms: _417  and  _419
REMARK  175  A    between atoms: _419  and  _420
REMARK  176  A    between atoms: _422  and  _424
REMARK  177  A    between atoms: _424  and  _425
REMARK  178  A    between atoms: _424  and  _427
REMARK  179  A    between atoms: _427  and  _428
REMARK  180  A    between atoms: _434  and  _436
REMARK  181  A    between atoms: _436  and  _437
REMARK  182  A    between atoms: _436  and  _439
REMARK  183  A    between atoms: _439  and  _440
REMARK  184  A    between atoms: _443  and  _445
REMARK  185  A    between atoms: _445  and  _446
REMARK  186  A    between atoms: _445  and  _448
REMARK  187  A    between atoms: _448  and  _449
REMARK  188  A    between atoms: _452  and  _454
REMARK  189  A    between atoms: _454  and  _455
REMARK  190  A    between atoms: _454  and  _457
REMARK  191  A    between atoms: _457  and  _458
REMARK  192  A    between atoms: _462  and  _463
REMARK  193  A    between atoms: _468  and  _470
REMARK  194  A    between atoms: _470  and  _471
REMARK  195  A    between atoms: _470  and  _473
REMARK  196  A    between atoms: _476  and  _478
REMARK  197  A    between atoms: _478  and  _479
REMARK  198  A    between atoms: _478  and  _481
REMARK  199  A    between atoms: _481  and  _482
REMARK  200  A    between atoms: _487  and  _489
REMARK  201  A    between atoms: _489  and  _490
REMARK  202  A    between atoms: _489  and  _492
REMARK  203  A    between atoms: _492  and  _493
REMARK  204  A    between atoms: _496  and  _498
REMARK  205  A    between atoms: _498  and  _499
REMARK  206  A    between atoms: _498  and  _501
REMARK  207  A    between atoms: _501  and  _502
REMARK  208  A    between atoms: _505  and  _507
REMARK  209  A    between atoms: _507  and  _508
REMARK  210  A    between atoms: _510  and  _512
REMARK  211  A    between atoms: _512  and  _513
REMARK  212  A    between atoms: _512  and  _515
REMARK  213  A    between atoms: _515  and  _516
REMARK  214  A    between atoms: _516  and  _517
REMARK  215  A    between atoms: _517  and  _518
REMARK  216  A    between atoms: _527  and  _529
REMARK  217  A    between atoms: _529  and  _530
REMARK  218  A    between atoms: _529  and  _532
REMARK  219  A    between atoms: _532  and  _533
REMARK                            x       y       z     vdW  Elec       q    Type
REMARK                         _______ _______ _______ _____ _____    ______ ____
ROOT
ATOM      1  C   ILE A   5      28.733  28.553  18.152  0.00  0.00    +0.241 C 
ATOM      2  N   ILE A   6      28.503  27.812  19.231  0.00  0.00    -0.297 N 
ATOM      3  H   ILE A   6      27.982  28.221  20.033  0.00  0.00    +0.150 HD
ATOM      4  O   ILE A   5      29.478  28.196  17.229  0.00  0.00    -0.273 OA
ENDROOT
BRANCH   2   5
ATOM      5  CA  ILE A   6      28.967  26.445  19.306  0.00  0.00    +0.149 C 
BRANCH   5   6
ATOM      6  C   ILE A   6      27.798  25.571  18.907  0.00  0.00    +0.241 C 
ATOM      7  O   ILE A   6      26.781  25.534  19.612  0.00  0.00    -0.273 OA
ATOM      8  N   GLY A   7      27.939  24.856  17.792  0.00  0.00    -0.295 N 
ATOM      9  H   GLY A   7      28.832  24.915  17.262  0.00  0.00    +0.150 HD
BRANCH   8  10
ATOM     10  CA  GLY A   7      26.866  23.987  17.292  0.00  0.00    +0.176 C 
BRANCH  10  11
ATOM     11  C   GLY A   7      26.965  22.547  17.746  0.00  0.00    +0.243 C 
ATOM     12  O   GLY A   7      27.900  22.179  18.439  0.00  0.00    -0.273 OA
ATOM     13  N   ARG A   8      26.031  21.713  17.284  0.00  0.00    -0.297 N 
ATOM     14  H   ARG A   8      25.333  22.065  16.598  0.00  0.00    +0.150 HD
BRANCH  13  15
ATOM     15  CA  ARG A   8      25.962  20.317  17.717  0.00  0.00    +0.149 C 
BRANCH  15  16
ATOM     16  C   ARG A   8      27.222  19.494  17.426  0.00  0.00    +0.241 C 
ATOM     17  O   ARG A   8      27.538  18.572  18.181  0.00  0.00    -0.273 OA
ATOM     18  N   ASN A   9      27.954  19.807  16.364  0.00  0.00    -0.298 N 
ATOM     19  H   ASN A   9      27.663  20.584  15.737  0.00  0.00    +0.150 HD
BRANCH  18  20
ATOM     20  CA  ASN A   9      29.176  19.048  16.082  0.00  0.00    +0.146 C 
BRANCH  20  21
ATOM     21  C   ASN A   9      30.141  19.061  17.277  0.00  0.00    +0.227 C 
ATOM     22  O   ASN A   9      30.791  18.067  17.544  0.00  0.00    -0.286 OA
ENDBRANCH  20  21
BRANCH  20  23
ATOM     23  CB  ASN A   9      29.868  19.523  14.792  0.00  0.00    +0.112 C 
BRANCH  23  24
ATOM     24  CG  ASN A   9      30.541  20.897  14.933  0.00  0.00    +0.222 C 
ATOM     25  OD1 ASN A   9      29.922  21.864  15.373  0.00  0.00    -0.275 OA
ATOM     26  ND2 ASN A   9      31.813  20.977  14.536  0.00  0.00    -0.329 N 
ATOM     27 HD21 ASN A   9      32.319  21.884  14.593  0.00  0.00    +0.145 HD
ATOM     28 HD22 ASN A   9      32.298  20.133  14.170  0.00  0.00    +0.145 HD
ENDBRANCH  23  24
ENDBRANCH  20  23
ENDBRANCH  18  20
ENDBRANCH  15  16
BRANCH  15  29
ATOM     29  CB  ARG A   8      24.721  19.614  17.139  0.00  0.00    +0.033 C 
BRANCH  29  30
ATOM     30  CG  ARG A   8      23.394  20.227  17.627  0.00  0.00    +0.045 C 
BRANCH  30  31
ATOM     31  CD  ARG A   8      22.169  19.420  17.204  0.00  0.00    +0.174 C 
BRANCH  31  32
ATOM     32  NE  ARG A   8      22.025  19.427  15.748  0.00  0.00    -0.265 N 
ATOM     33  HE  ARG A   8      21.527  20.234  15.321  0.00  0.00    +0.259 HD
ATOM     34  CZ  ARG A   8      22.479  18.484  14.924  0.00  0.00    +0.342 C 
ATOM     35  NH2 ARG A   8      23.089  17.394  15.376  0.00  0.00    -0.292 N 
ATOM     36 HH21 ARG A   8      23.223  17.259  16.398  0.00  0.00    +0.255 HD
ATOM     37 HH22 ARG A   8      23.433  16.675  14.707  0.00  0.00    +0.255 HD
ATOM     38  NH1 ARG A   8      22.312  18.638  13.623  0.00  0.00    -0.292 N 
ATOM     39 HH11 ARG A   8      21.833  19.485  13.257  0.00  0.00    +0.255 HD
ATOM     40 HH12 ARG A   8      22.660  17.912  12.965  0.00  0.00    +0.255 HD
ENDBRANCH  31  32
ENDBRANCH  30  31
ENDBRANCH  29  30
ENDBRANCH  15  29
ENDBRANCH  13  15
ENDBRANCH  10  11
ENDBRANCH   8  10
ENDBRANCH   5   6
BRANCH   5  41
ATOM     41  CB  ILE A   6      29.421  26.068  20.723  0.00  0.00    +0.027 C 
ATOM     42  CG2 ILE A   6      29.921  24.625  20.732  0.00  0.00    +0.002 C 
BRANCH  41  43
ATOM     43  CG1 ILE A   6      30.498  27.039  21.254  0.00  0.00    +0.002 C 
ATOM     44  CD1 ILE A   6      31.740  27.205  20.352  0.00  0.00    +0.000 C 
ENDBRANCH  41  43
ENDBRANCH   5  41
ENDBRANCH   2   5
BRANCH   1  45
ATOM     45  CA  ILE A   5      28.032  29.905  18.136  0.00  0.00    +0.149 C 
BRANCH  45  48
ATOM     46  C   ASN A   4      29.112  32.059  18.424  0.00  0.00    +0.241 C 
ATOM     47  O   ASN A   4      28.513  32.274  19.485  0.00  0.00    -0.273 OA
ATOM     48  N   ILE A   5      28.916  30.963  17.691  0.00  0.00    -0.297 N 
ATOM     49  H   ILE A   5      29.408  30.865  16.780  0.00  0.00    +0.150 HD
BRANCH  46  50
ATOM     50  CA  ASN A   4      30.099  33.082  17.880  0.00  0.00    +0.158 C 
BRANCH  50  52
ATOM     51  C   VAL A   3      28.338  34.563  17.059  0.00  0.00    +0.241 C 
ATOM     52  N   ASN A   4      29.423  34.380  17.810  0.00  0.00    -0.297 N 
ATOM     53  H   ASN A   4      29.799  35.178  18.360  0.00  0.00    +0.150 HD
ATOM     54  O   VAL A   3      27.933  33.722  16.257  0.00  0.00    -0.273 OA
BRANCH  51  55
ATOM     55  CA  VAL A   3      27.598  35.891  17.213  0.00  0.00    +0.149 C 
BRANCH  55  58
ATOM     56  C   PRO A   2      26.566  37.412  15.587  0.00  0.00    +0.241 C 
ATOM     57  O   PRO A   2      26.803  38.412  16.258  0.00  0.00    -0.273 OA
ATOM     58  N   VAL A   3      26.884  36.179  15.971  0.00  0.00    -0.297 N 
ATOM     59  H   VAL A   3      26.612  35.383  15.359  0.00  0.00    +0.150 HD
BRANCH  56  62
ATOM     60  C   THR A   1      27.302  36.221  12.830  0.00  0.00    +0.244 C 
ATOM     61  N   PRO A   2      26.060  36.464  13.283  0.00  0.00    -0.272 N 
ATOM     62  CA  PRO A   2      25.833  37.551  14.257  0.00  0.00    +0.152 C 
ATOM     63  CB  PRO A   2      24.315  37.516  14.506  0.00  0.00    +0.031 C 
ATOM     64  CG  PRO A   2      23.852  36.224  13.988  0.00  0.00    +0.024 C 
ATOM     65  CD  PRO A   2      24.807  35.772  12.932  0.00  0.00    +0.094 C 
ATOM     66  O   THR A   1      28.254  36.931  13.126  0.00  0.00    -0.273 OA
BRANCH  60  67
ATOM     67  CA  THR A   1      27.513  35.006  11.914  0.00  0.00    +0.172 C 
BRANCH  67  68
ATOM     68  CB  THR A   1      27.919  33.763  12.754  0.00  0.00    +0.135 C 
ATOM     69  CG2 THR A   1      29.308  33.929  13.389  0.00  0.00    +0.034 C 
BRANCH  68  70
ATOM     70  OG1 THR A   1      26.946  33.520  13.774  0.00  0.00    -0.383 OA
ATOM     71  HG1 THR A   1      26.888  34.310  14.368  0.00  0.00    +0.210 HD
ENDBRANCH  68  70
ENDBRANCH  67  68
BRANCH  67  72
ATOM     72  N   THR A   1      28.528  35.326  10.910  0.00  0.00    -0.236 NA
ATOM     73  H   THR A   1      29.478  34.916  11.010  0.00  0.00    +0.142 HD
ENDBRANCH  67  72
ENDBRANCH  60  67
ENDBRANCH  56  62
ENDBRANCH  55  58
BRANCH  55  74
ATOM     74  CB  VAL A   3      26.604  35.808  18.401  0.00  0.00    +0.027 C 
ATOM     75  CG2 VAL A   3      27.318  35.608  19.731  0.00  0.00    +0.002 C 
ATOM     76  CG1 VAL A   3      25.606  34.695  18.202  0.00  0.00    +0.002 C 
ENDBRANCH  55  74
ENDBRANCH  51  55
ENDBRANCH  50  52
BRANCH  50  77
ATOM     77  CB  ASN A   4      31.322  33.117  18.819  0.00  0.00    +0.114 C 
BRANCH  77  78
ATOM     78  CG  ASN A   4      32.398  34.097  18.380  0.00  0.00    +0.222 C 
ATOM     79  ND2 ASN A   4      33.028  34.756  19.357  0.00  0.00    -0.329 N 
ATOM     80 HD21 ASN A   4      32.749  34.608  20.348  0.00  0.00    +0.145 HD
ATOM     81 HD22 ASN A   4      33.797  35.417  19.126  0.00  0.00    +0.145 HD
ATOM     82  OD1 ASN A   4      32.691  34.238  17.190  0.00  0.00    -0.275 OA
ENDBRANCH  77  78
ENDBRANCH  50  77
ENDBRANCH  46  50
ENDBRANCH  45  48
BRANCH  45  83
ATOM     83  CB  ILE A   5      26.712  29.819  17.302  0.00  0.00    +0.027 C 
ATOM     84  CG2 ILE A   5      25.937  31.124  17.387  0.00  0.00    +0.002 C 
BRANCH  83  85
ATOM     85  CG1 ILE A   5      26.983  29.453  15.840  0.00  0.00    +0.002 C 
ATOM     86  CD1 ILE A   5      25.755  29.432  14.981  0.00  0.00    +0.000 C 
ENDBRANCH  83  85
ENDBRANCH  45  83
ENDBRANCH   1  45
TORSDOF 32
REMARK  Name = ../refined-set-2016/2psu/2psu_pocket.pdb
REMARK  219 active torsions:
REMARK  status: ('A' for Active; 'I' for Inactive)
REMARK    1  A    between atoms: _1  and  _3
REMARK    2  A    between atoms: _3  and  _4
REMARK    3  A    between atoms: _3  and  _6
REMARK    4  A    between atoms: _6  and  _7
REMARK    5  A    between atoms: _7  and  _8
REMARK    6  A    between atoms: _8  and  _9
REMARK    7  A    between atoms: _18  and  _20
REMARK    8  A    between atoms: _20  and  _21
REMARK    9  A    between atoms: _20  and  _23
REMARK   10  A    between atoms: _23  and  _24
REMARK   11  A    between atoms: _27  and  _29
REMARK   12  A    between atoms: _29  and  _30
REMARK   13  A    between atoms: _29  and  _32
REMARK   14  A    between atoms: _32  and  _33
REMARK   15  A    between atoms: _36  and  _38
REMARK   16  A    between atoms: _38  and  _39
REMARK   17  A    between atoms: _38  and  _41
REMARK   18  A    between atoms: _41  and  _42
REMARK   19  A    between atoms: _45  and  _47
REMARK   20  A    between atoms: _47  and  _48
REMARK   21  A    between atoms: _47  and  _50
REMARK   22  A    between atoms: _50  and  _51
REMARK   23  A    between atoms: _54  and  _56
REMARK   24  A    between atoms: _56  and  _57
REMARK   25  A    between atoms: _59  and  _61
REMARK   26  A    between atoms: _61  and  _62
REMARK   27  A    between atoms: _65  and  _67
REMARK   28  A    between atoms: _67  and  _68
REMARK   29  A    between atoms: _67  and  _70
REMARK   30  A    between atoms: _70  and  _71
REMARK   31  A    between atoms: _74  and  _76
REMARK   32  A    between atoms: _76  and  _77
REMARK   33  A    between atoms: _76  and  _79
REMARK   34  A    between atoms: _79  and  _80
REMARK   35  A    between atoms: _83  and  _85
REMARK   36  A    between atoms: _85  and  _86
REMARK   37  A    between atoms: _85  and  _88
REMARK   38  A    between atoms: _88  and  _89
REMARK   39  A    between atoms: _92  and  _94
REMARK   40  A    between atoms: _94  and  _95
REMARK   41  A    between atoms: _94  and  _97
REMARK   42  A    between atoms: _100  and  _102
REMARK   43  A    between atoms: _102  and  _103
REMARK   44  A    between atoms: _102  and  _105
REMARK   45  A    between atoms: _105  and  _106
REMARK   46  A    between atoms: _106  and  _107
REMARK   47  A    between atoms: _109  and  _111
REMARK   48  A    between atoms: _111  and  _112
REMARK   49  A    between atoms: _111  and  _114
REMARK   50  A    between atoms: _114  and  _115
REMARK   51  A    between atoms: _118  and  _120
REMARK   52  A    between atoms: _120  and  _121
REMARK   53  A    between atoms: _123  and  _125
REMARK   54  A    between atoms: _125  and  _126
REMARK   55  A    between atoms: _128  and  _130
REMARK   56  A    between atoms: _130  and  _131
REMARK   57  A    between atoms: _130  and  _133
REMARK   58  A    between atoms: _133  and  _134
REMARK   59  A    between atoms: _137  and  _139
REMARK   60  A    between atoms: _139  and  _140
REMARK   61  A    between atoms: _142  and  _144
REMARK   62  A    between atoms: _144  and  _145
REMARK   63  A    between atoms: _147  and  _149
REMARK   64  A    between atoms: _149  and  _150
REMARK   65  A    between atoms: _149  and  _152
REMARK   66  A    between atoms: _152  and  _153
REMARK   67  A    between atoms: _159  and  _161
REMARK   68  A    between atoms: _161  and  _162
REMARK   69  A    between atoms: _161  and  _164
REMARK   70  A    between atoms: _164  and  _165
REMARK   71  A    between atoms: _168  and  _170
REMARK   72  A    between atoms: _170  and  _171
REMARK   73  A    between atoms: _170  and  _173
REMARK   74  A    between atoms: _173  and  _174
REMARK   75  A    between atoms: _177  and  _179
REMARK   76  A    between atoms: _179  and  _180
REMARK   77  A    between atoms: _179  and  _182
REMARK   78  A    between atoms: _182  and  _183
REMARK   79  A    between atoms: _187  and  _188
REMARK   80  A    between atoms: _193  and  _195
REMARK   81  A    between atoms: _195  and  _196
REMARK   82  A    between atoms: _195  and  _198
REMARK   83  A    between atoms: _201  and  _203
REMARK   84  A    between atoms: _203  and  _204
REMARK   85  A    between atoms: _203  and  _206
REMARK   86  A    between atoms: _206  and  _207
REMARK   87  A    between atoms: _212  and  _214
REMARK   88  A    between atoms: _214  and  _215
REMARK   89  A    between atoms: _214  and  _217
REMARK   90  A    between atoms: _217  and  _218
REMARK   91  A    between atoms: _221  and  _223
REMARK   92  A    between atoms: _223  and  _224
REMARK   93  A    between atoms: _223  and  _226
REMARK   94  A    between atoms: _226  and  _227
REMARK   95  A    between atoms: _230  and  _232
REMARK   96  A    between atoms: _232  and  _233
REMARK   97  A    between atoms: _235  and  _237
REMARK   98  A    between atoms: _237  and  _238
REMARK   99  A    between atoms: _237  and  _240
REMARK  100  A    between atoms: _240  and  _241
REMARK  101  A    between atoms: _241  and  _242
REMARK  102  A    between atoms: _242  and  _243
REMARK  103  A    between atoms: _252  and  _254
REMARK  104  A    between atoms: _254  and  _255
REMARK  105  A    between atoms: _254  and  _257
REMARK  106  A    between atoms: _257  and  _258
REMARK  107  A    between atoms: _263  and  _265
REMARK  108  A    between atoms: _265  and  _266
REMARK  109  A    between atoms: _265  and  _268
REMARK  110  A    between atoms: _268  and  _269
REMARK  111  A    between atoms: _269  and  _270
REMARK  112  A    between atoms: _270  and  _271
REMARK  113  A    between atoms: _280  and  _282
REMARK  114  A    between atoms: _282  and  _283
REMARK  115  A    between atoms: _282  and  _285
REMARK  116  A    between atoms: _285  and  _286
REMARK  117  A    between atoms: _289  and  _291
REMARK  118  A    between atoms: _291  and  _292
REMARK  119  A    between atoms: _291  and  _294
REMARK  120  A    between atoms: _294  and  _295
REMARK  121  A    between atoms: _298  and  _300
REMARK  122  A    between atoms: _300  and  _301
REMARK  123  A    between atoms: _300  and  _303
REMARK  124  A    between atoms: _303  and  _304
REMARK  125  A    between atoms: _307  and  _309
REMARK  126  A    between atoms: _309  and  _310
REMARK  127  A    between atoms: _309  and  _312
REMARK  128  A    between atoms: _312  and  _313
REMARK  129  A    between atoms: _316  and  _318
REMARK  130  A    between atoms: _318  and  _319
REMARK  131  A    between atoms: _321  and  _323
REMARK  132  A    between atoms: _323  and  _324
REMARK  133  A    between atoms: _327  and  _329
REMARK  134  A    between atoms: _329  and  _330
REMARK  135  A    between atoms: _329  and  _332
REMARK  136  A    between atoms: _332  and  _333
REMARK  137  A    between atoms: _336  and  _338
REMARK  138  A    between atoms: _338  and  _339
REMARK  139  A    between atoms: _338  and  _341
REMARK  140  A    between atoms: _341  and  _342
REMARK  141  A    between atoms: _345  and  _347
REMARK  142  A    between atoms: _347  and  _348
REMARK  143  A    between atoms: _347  and  _350
REMARK  144  A    between atoms: _350  and  _351
REMARK  145  A    between atoms: _354  and  _356
REMARK  146  A    between atoms: _356  and  _357
REMARK  147  A    between atoms: _356  and  _359
REMARK  148  A    between atoms: _362  and  _364
REMARK  149  A    between atoms: _364  and  _365
REMARK  150  A    between atoms: _364  and  _367
REMARK  151  A    between atoms: _367  and  _368
REMARK  152  A    between atoms: _368  and  _369
REMARK  153  A    between atoms: _369  and  _370
REMARK  154  A    between atoms: _370  and  _371
REMARK  155  A    between atoms: _375  and  _377
REMARK  156  A    between atoms: _377  and  _378
REMARK  157  A    between atoms: _377  and  _380
REMARK  158  A    between atoms: _380  and  _381
REMARK  159  A    between atoms: _381  and  _382
REMARK  160  A    between atoms: _384  and  _386
REMARK  161  A    between atoms: _386  and  _387
REMARK  162  A    between atoms: _386  and  _389
REMARK  163  A    between atoms: _389  and  _390
REMARK  164  A    between atoms: _393  and  _395
REMARK  165  A    between atoms: _395  and  _396
REMARK  166  A    between atoms: _398  and  _400
REMARK  167  A    between atoms: _400  and  _401
REMARK  168  A    between atoms: _403  and  _405
REMARK  169  A    between atoms: _405  and  _406
REMARK  170  A    between atoms: _405  and  _408
REMARK  171  A    between atoms: _408  and  _409
REMARK  172  A    between atoms: _412  and  _414
REMARK  173  A    between atoms: _414  and  _415
REMARK  174  A    between atoms: _417  and  _419
REMARK  175  A    between atoms: _419  and  _420
REMARK  176  A    between atoms: _422  and  _424
REMARK  177  A    between atoms: _424  and  _425
REMARK  178  A    between atoms: _424  and  _427
REMARK  179  A    between atoms: _427  and  _428
REMARK  180  A    between atoms: _434  and  _436
REMARK  181  A    between atoms: _436  and  _437
REMARK  182  A    between atoms: _436  and  _439
REMARK  183  A    between atoms: _439  and  _440
REMARK  184  A    between atoms: _443  and  _445
REMARK  185  A    between atoms: _445  and  _446
REMARK  186  A    between atoms: _445  and  _448
REMARK  187  A    between atoms: _448  and  _449
REMARK  188  A    between atoms: _452  and  _454
REMARK  189  A    between atoms: _454  and  _455
REMARK  190  A    between atoms: _454  and  _457
REMARK  191  A    between atoms: _457  and  _458
REMARK  192  A    between atoms: _462  and  _463
REMARK  193  A    between atoms: _468  and  _470
REMARK  194  A    between atoms: _470  and  _471
REMARK  195  A    between atoms: _470  and  _473
REMARK  196  A    between atoms: _476  and  _478
REMARK  197  A    between atoms: _478  and  _479
REMARK  198  A    between atoms: _478  and  _481
REMARK  199  A    between atoms: _481  and  _482
REMARK  200  A    between atoms: _487  and  _489
REMARK  201  A    between atoms: _489  and  _490
REMARK  202  A    between atoms: _489  and  _492
REMARK  203  A    between atoms: _492  and  _493
REMARK  204  A    between atoms: _496  and  _498
REMARK  205  A    between atoms: _498  and  _499
REMARK  206  A    between atoms: _498  and  _501
REMARK  207  A    between atoms: _501  and  _502
REMARK  208  A    between atoms: _505  and  _507
REMARK  209  A    between atoms: _507  and  _508
REMARK  210  A    between atoms: _510  and  _512
REMARK  211  A    between atoms: _512  and  _513
REMARK  212  A    between atoms: _512  and  _515
REMARK  213  A    between atoms: _515  and  _516
REMARK  214  A    between atoms: _516  and  _517
REMARK  215  A    between atoms: _517  and  _518
REMARK  216  A    between atoms: _527  and  _529
REMARK  217  A    between atoms: _529  and  _530
REMARK  218  A    between atoms: _529  and  _532
REMARK  219  A    between atoms: _532  and  _533
REMARK                            x       y       z     vdW  Elec       q    Type
REMARK                         _______ _______ _______ _____ _____    ______ ____
ROOT
ATOM      1  NE  ARG A   1      19.008  20.224  11.193  0.00  0.00    -0.265 N 
ATOM      2  HE  ARG A   1      19.801  19.567  11.044  0.00  0.00    +0.259 HD
ATOM      3  CZ  ARG A   1      18.868  21.222  10.321  0.00  0.00    +0.342 C 
ATOM      4  NH2 ARG A   1      17.889  22.129  10.447  0.00  0.00    -0.292 N 
ATOM      5 HH21 ARG A   1      17.218  22.063  11.239  0.00  0.00    +0.255 HD
ATOM      6 HH22 ARG A   1      17.801  22.899   9.753  0.00  0.00    +0.255 HD
ATOM      7  NH1 ARG A   1      19.732  21.312   9.318  0.00  0.00    -0.292 N 
ATOM      8 HH11 ARG A   1      20.497  20.613   9.226  0.00  0.00    +0.255 HD
ATOM      9 HH12 ARG A   1      19.645  22.082   8.624  0.00  0.00    +0.255 HD
ENDROOT
BRANCH   1  10
ATOM     10  CD  ARG A   1      18.145  19.978  12.334  0.00  0.00    +0.174 C 
BRANCH  10  11
ATOM     11  CG  ARG A   1      18.860  19.157  13.382  0.00  0.00    +0.045 C 
BRANCH  11  12
ATOM     12  CB  ARG A   1      17.904  18.692  14.452  0.00  0.00    +0.029 C 
BRANCH  12  13
ATOM     13  CA  ARG A   1      18.607  18.062  15.647  0.00  0.00    +0.133 C 
BRANCH  13  14
ATOM     14  N   ARG A   1      19.312  16.859  15.235  0.00  0.00    -0.239 NA
ATOM     15  H   ARG A   1      19.251  16.543  14.246  0.00  0.00    +0.142 HD
ENDBRANCH  13  14
BRANCH  13  16
ATOM     16  C   ARG A   1      17.585  17.710  16.736  0.00  0.00    +0.224 C 
ATOM     17  O   ARG A   1      16.859  16.714  16.604  0.00  0.00    -0.287 OA
ENDBRANCH  13  16
ENDBRANCH  12  13
ENDBRANCH  11  12
ENDBRANCH  10  11
ENDBRANCH   1  10
TORSDOF 6
REMARK  Name = ../refined-set-2016/2psu/2psu_pocket.pdb
REMARK  219 active torsions:
REMARK  status: ('A' for Active; 'I' for Inactive)
REMARK    1  A    between atoms: _1  and  _3
REMARK    2  A    between atoms: _3  and  _4
REMARK    3  A    between atoms: _3  and  _6
REMARK    4  A    between atoms: _6  and  _7
REMARK    5  A    between atoms: _7  and  _8
REMARK    6  A    between atoms: _8  and  _9
REMARK    7  A    between atoms: _18  and  _20
REMARK    8  A    between atoms: _20  and  _21
REMARK    9  A    between atoms: _20  and  _23
REMARK   10  A    between atoms: _23  and  _24
REMARK   11  A    between atoms: _27  and  _29
REMARK   12  A    between atoms: _29  and  _30
REMARK   13  A    between atoms: _29  and  _32
REMARK   14  A    between atoms: _32  and  _33
REMARK   15  A    between atoms: _36  and  _38
REMARK   16  A    between atoms: _38  and  _39
REMARK   17  A    between atoms: _38  and  _41
REMARK   18  A    between atoms: _41  and  _42
REMARK   19  A    between atoms: _45  and  _47
REMARK   20  A    between atoms: _47  and  _48
REMARK   21  A    between atoms: _47  and  _50
REMARK   22  A    between atoms: _50  and  _51
REMARK   23  A    between atoms: _54  and  _56
REMARK   24  A    between atoms: _56  and  _57
REMARK   25  A    between atoms: _59  and  _61
REMARK   26  A    between atoms: _61  and  _62
REMARK   27  A    between atoms: _65  and  _67
REMARK   28  A    between atoms: _67  and  _68
REMARK   29  A    between atoms: _67  and  _70
REMARK   30  A    between atoms: _70  and  _71
REMARK   31  A    between atoms: _74  and  _76
REMARK   32  A    between atoms: _76  and  _77
REMARK   33  A    between atoms: _76  and  _79
REMARK   34  A    between atoms: _79  and  _80
REMARK   35  A    between atoms: _83  and  _85
REMARK   36  A    between atoms: _85  and  _86
REMARK   37  A    between atoms: _85  and  _88
REMARK   38  A    between atoms: _88  and  _89
REMARK   39  A    between atoms: _92  and  _94
REMARK   40  A    between atoms: _94  and  _95
REMARK   41  A    between atoms: _94  and  _97
REMARK   42  A    between atoms: _100  and  _102
REMARK   43  A    between atoms: _102  and  _103
REMARK   44  A    between atoms: _102  and  _105
REMARK   45  A    between atoms: _105  and  _106
REMARK   46  A    between atoms: _106  and  _107
REMARK   47  A    between atoms: _109  and  _111
REMARK   48  A    between atoms: _111  and  _112
REMARK   49  A    between atoms: _111  and  _114
REMARK   50  A    between atoms: _114  and  _115
REMARK   51  A    between atoms: _118  and  _120
REMARK   52  A    between atoms: _120  and  _121
REMARK   53  A    between atoms: _123  and  _125
REMARK   54  A    between atoms: _125  and  _126
REMARK   55  A    between atoms: _128  and  _130
REMARK   56  A    between atoms: _130  and  _131
REMARK   57  A    between atoms: _130  and  _133
REMARK   58  A    between atoms: _133  and  _134
REMARK   59  A    between atoms: _137  and  _139
REMARK   60  A    between atoms: _139  and  _140
REMARK   61  A    between atoms: _142  and  _144
REMARK   62  A    between atoms: _144  and  _145
REMARK   63  A    between atoms: _147  and  _149
REMARK   64  A    between atoms: _149  and  _150
REMARK   65  A    between atoms: _149  and  _152
REMARK   66  A    between atoms: _152  and  _153
REMARK   67  A    between atoms: _159  and  _161
REMARK   68  A    between atoms: _161  and  _162
REMARK   69  A    between atoms: _161  and  _164
REMARK   70  A    between atoms: _164  and  _165
REMARK   71  A    between atoms: _168  and  _170
REMARK   72  A    between atoms: _170  and  _171
REMARK   73  A    between atoms: _170  and  _173
REMARK   74  A    between atoms: _173  and  _174
REMARK   75  A    between atoms: _177  and  _179
REMARK   76  A    between atoms: _179  and  _180
REMARK   77  A    between atoms: _179  and  _182
REMARK   78  A    between atoms: _182  and  _183
REMARK   79  A    between atoms: _187  and  _188
REMARK   80  A    between atoms: _193  and  _195
REMARK   81  A    between atoms: _195  and  _196
REMARK   82  A    between atoms: _195  and  _198
REMARK   83  A    between atoms: _201  and  _203
REMARK   84  A    between atoms: _203  and  _204
REMARK   85  A    between atoms: _203  and  _206
REMARK   86  A    between atoms: _206  and  _207
REMARK   87  A    between atoms: _212  and  _214
REMARK   88  A    between atoms: _214  and  _215
REMARK   89  A    between atoms: _214  and  _217
REMARK   90  A    between atoms: _217  and  _218
REMARK   91  A    between atoms: _221  and  _223
REMARK   92  A    between atoms: _223  and  _224
REMARK   93  A    between atoms: _223  and  _226
REMARK   94  A    between atoms: _226  and  _227
REMARK   95  A    between atoms: _230  and  _232
REMARK   96  A    between atoms: _232  and  _233
REMARK   97  A    between atoms: _235  and  _237
REMARK   98  A    between atoms: _237  and  _238
REMARK   99  A    between atoms: _237  and  _240
REMARK  100  A    between atoms: _240  and  _241
REMARK  101  A    between atoms: _241  and  _242
REMARK  102  A    between atoms: _242  and  _243
REMARK  103  A    between atoms: _252  and  _254
REMARK  104  A    between atoms: _254  and  _255
REMARK  105  A    between atoms: _254  and  _257
REMARK  106  A    between atoms: _257  and  _258
REMARK  107  A    between atoms: _263  and  _265
REMARK  108  A    between atoms: _265  and  _266
REMARK  109  A    between atoms: _265  and  _268
REMARK  110  A    between atoms: _268  and  _269
REMARK  111  A    between atoms: _269  and  _270
REMARK  112  A    between atoms: _270  and  _271
REMARK  113  A    between atoms: _280  and  _282
REMARK  114  A    between atoms: _282  and  _283
REMARK  115  A    between atoms: _282  and  _285
REMARK  116  A    between atoms: _285  and  _286
REMARK  117  A    between atoms: _289  and  _291
REMARK  118  A    between atoms: _291  and  _292
REMARK  119  A    between atoms: _291  and  _294
REMARK  120  A    between atoms: _294  and  _295
REMARK  121  A    between atoms: _298  and  _300
REMARK  122  A    between atoms: _300  and  _301
REMARK  123  A    between atoms: _300  and  _303
REMARK  124  A    between atoms: _303  and  _304
REMARK  125  A    between atoms: _307  and  _309
REMARK  126  A    between atoms: _309  and  _310
REMARK  127  A    between atoms: _309  and  _312
REMARK  128  A    between atoms: _312  and  _313
REMARK  129  A    between atoms: _316  and  _318
REMARK  130  A    between atoms: _318  and  _319
REMARK  131  A    between atoms: _321  and  _323
REMARK  132  A    between atoms: _323  and  _324
REMARK  133  A    between atoms: _327  and  _329
REMARK  134  A    between atoms: _329  and  _330
REMARK  135  A    between atoms: _329  and  _332
REMARK  136  A    between atoms: _332  and  _333
REMARK  137  A    between atoms: _336  and  _338
REMARK  138  A    between atoms: _338  and  _339
REMARK  139  A    between atoms: _338  and  _341
REMARK  140  A    between atoms: _341  and  _342
REMARK  141  A    between atoms: _345  and  _347
REMARK  142  A    between atoms: _347  and  _348
REMARK  143  A    between atoms: _347  and  _350
REMARK  144  A    between atoms: _350  and  _351
REMARK  145  A    between atoms: _354  and  _356
REMARK  146  A    between atoms: _356  and  _357
REMARK  147  A    between atoms: _356  and  _359
REMARK  148  A    between atoms: _362  and  _364
REMARK  149  A    between atoms: _364  and  _365
REMARK  150  A    between atoms: _364  and  _367
REMARK  151  A    between atoms: _367  and  _368
REMARK  152  A    between atoms: _368  and  _369
REMARK  153  A    between atoms: _369  and  _370
REMARK  154  A    between atoms: _370  and  _371
REMARK  155  A    between atoms: _375  and  _377
REMARK  156  A    between atoms: _377  and  _378
REMARK  157  A    between atoms: _377  and  _380
REMARK  158  A    between atoms: _380  and  _381
REMARK  159  A    between atoms: _381  and  _382
REMARK  160  A    between atoms: _384  and  _386
REMARK  161  A    between atoms: _386  and  _387
REMARK  162  A    between atoms: _386  and  _389
REMARK  163  A    between atoms: _389  and  _390
REMARK  164  A    between atoms: _393  and  _395
REMARK  165  A    between atoms: _395  and  _396
REMARK  166  A    between atoms: _398  and  _400
REMARK  167  A    between atoms: _400  and  _401
REMARK  168  A    between atoms: _403  and  _405
REMARK  169  A    between atoms: _405  and  _406
REMARK  170  A    between atoms: _405  and  _408
REMARK  171  A    between atoms: _408  and  _409
REMARK  172  A    between atoms: _412  and  _414
REMARK  173  A    between atoms: _414  and  _415
REMARK  174  A    between atoms: _417  and  _419
REMARK  175  A    between atoms: _419  and  _420
REMARK  176  A    between atoms: _422  and  _424
REMARK  177  A    between atoms: _424  and  _425
REMARK  178  A    between atoms: _424  and  _427
REMARK  179  A    between atoms: _427  and  _428
REMARK  180  A    between atoms: _434  and  _436
REMARK  181  A    between atoms: _436  and  _437
REMARK  182  A    between atoms: _436  and  _439
REMARK  183  A    between atoms: _439  and  _440
REMARK  184  A    between atoms: _443  and  _445
REMARK  185  A    between atoms: _445  and  _446
REMARK  186  A    between atoms: _445  and  _448
REMARK  187  A    between atoms: _448  and  _449
REMARK  188  A    between atoms: _452  and  _454
REMARK  189  A    between atoms: _454  and  _455
REMARK  190  A    between atoms: _454  and  _457
REMARK  191  A    between atoms: _457  and  _458
REMARK  192  A    between atoms: _462  and  _463
REMARK  193  A    between atoms: _468  and  _470
REMARK  194  A    between atoms: _470  and  _471
REMARK  195  A    between atoms: _470  and  _473
REMARK  196  A    between atoms: _476  and  _478
REMARK  197  A    between atoms: _478  and  _479
REMARK  198  A    between atoms: _478  and  _481
REMARK  199  A    between atoms: _481  and  _482
REMARK  200  A    between atoms: _487  and  _489
REMARK  201  A    between atoms: _489  and  _490
REMARK  202  A    between atoms: _489  and  _492
REMARK  203  A    between atoms: _492  and  _493
REMARK  204  A    between atoms: _496  and  _498
REMARK  205  A    between atoms: _498  and  _499
REMARK  206  A    between atoms: _498  and  _501
REMARK  207  A    between atoms: _501  and  _502
REMARK  208  A    between atoms: _505  and  _507
REMARK  209  A    between atoms: _507  and  _508
REMARK  210  A    between atoms: _510  and  _512
REMARK  211  A    between atoms: _512  and  _513
REMARK  212  A    between atoms: _512  and  _515
REMARK  213  A    between atoms: _515  and  _516
REMARK  214  A    between atoms: _516  and  _517
REMARK  215  A    between atoms: _517  and  _518
REMARK  216  A    between atoms: _527  and  _529
REMARK  217  A    between atoms: _529  and  _530
REMARK  218  A    between atoms: _529  and  _532
REMARK  219  A    between atoms: _532  and  _533
REMARK                            x       y       z     vdW  Elec       q    Type
REMARK                         _______ _______ _______ _____ _____    ______ ____
ROOT
ATOM      1  C   GLY A   5      19.657  30.816  20.320  0.00  0.00    +0.243 C 
ATOM      2  N   ALA A   6      18.378  30.567  20.602  0.00  0.00    -0.297 N 
ATOM      3  H   ALA A   6      18.144  29.692  21.113  0.00  0.00    +0.150 HD
ATOM      4  O   GLY A   5      20.028  31.844  19.766  0.00  0.00    -0.273 OA
ENDROOT
BRANCH   2   5
ATOM      5  CA  ALA A   6      17.293  31.464  20.227  0.00  0.00    +0.149 C 
ATOM      6  CB  ALA A   6      16.224  30.699  19.499  0.00  0.00    +0.031 C 
BRANCH   5   7
ATOM      7  C   ALA A   6      16.697  32.148  21.451  0.00  0.00    +0.241 C 
ATOM      8  O   ALA A   6      16.178  31.484  22.352  0.00  0.00    -0.273 OA
ATOM      9  N   ASP A   7      16.759  33.475  21.485  0.00  0.00    -0.297 N 
ATOM     10  H   ASP A   7      17.257  33.980  20.724  0.00  0.00    +0.150 HD
BRANCH   9  11
ATOM     11  CA  ASP A   7      16.139  34.248  22.575  0.00  0.00    +0.160 C 
BRANCH  11  12
ATOM     12  C   ASP A   7      14.632  34.074  22.546  0.00  0.00    +0.241 C 
ATOM     13  O   ASP A   7      13.976  34.087  23.590  0.00  0.00    -0.273 OA
ATOM     14  N   ASP A   8      14.106  33.936  21.326  0.00  0.00    -0.297 N 
ATOM     15  H   ASP A   8      14.752  33.792  20.524  0.00  0.00    +0.150 HD
BRANCH  14  16
ATOM     16  CA  ASP A   8      12.680  33.976  21.061  0.00  0.00    +0.160 C 
BRANCH  16  17
ATOM     17  C   ASP A   8      12.222  32.701  20.376  0.00  0.00    +0.241 C 
ATOM     18  N   THR A   9      10.914  32.477  20.449  0.00  0.00    -0.295 N 
ATOM     19  H   THR A   9      10.342  33.125  21.028  0.00  0.00    +0.150 HD
ATOM     20  O   ASP A   8      13.034  31.969  19.791  0.00  0.00    -0.273 OA
BRANCH  18  21
ATOM     21  CA  THR A   9      10.232  31.392  19.777  0.00  0.00    +0.176 C 
BRANCH  21  22
ATOM     22  C   THR A   9       9.701  31.900  18.421  0.00  0.00    +0.243 C 
ATOM     23  O   THR A   9       9.003  32.923  18.349  0.00  0.00    -0.273 OA
ATOM     24  N   VAL A  10      10.082  31.199  17.356  0.00  0.00    -0.298 N 
ATOM     25  H   VAL A  10      10.614  30.318  17.505  0.00  0.00    +0.150 HD
BRANCH  24  26
ATOM     26  CA  VAL A  10       9.785  31.613  15.989  0.00  0.00    +0.137 C 
BRANCH  26  27
ATOM     27  CB  VAL A  10      11.040  32.047  15.217  0.00  0.00    +0.026 C 
ATOM     28  CG2 VAL A  10      11.966  32.896  16.104  0.00  0.00    +0.002 C 
ATOM     29  CG1 VAL A  10      10.647  32.816  13.935  0.00  0.00    +0.002 C 
ENDBRANCH  26  27
BRANCH  26  30
ATOM     30  C   VAL A  10       9.144  30.442  15.260  0.00  0.00    +0.227 C 
ATOM     31  O   VAL A  10       9.766  29.379  15.062  0.00  0.00    -0.286 OA
ENDBRANCH  26  30
ENDBRANCH  24  26
ENDBRANCH  21  22
BRANCH  21  32
ATOM     32  CB  THR A   9       9.096  30.832  20.685  0.00  0.00    +0.137 C 
ATOM     33  CG2 THR A   9       8.293  29.740  19.991  0.00  0.00    +0.034 C 
BRANCH  32  34
ATOM     34  OG1 THR A   9       9.687  30.299  21.873  0.00  0.00    -0.382 OA
ATOM     35  HG1 THR A   9      10.177  31.017  22.347  0.00  0.00    +0.210 HD
ENDBRANCH  32  34
ENDBRANCH  21  32
ENDBRANCH  18  21
ENDBRANCH  16  17
BRANCH  16  36
ATOM     36  CB  ASP A   8      12.346  35.141  20.142  0.00  0.00    +0.143 C 
BRANCH  36  37
ATOM     37  CG  ASP A   8      12.885  36.454  20.647  0.00  0.00    +0.367 C 
ATOM     38  OD2 ASP A   8      12.566  36.829  21.794  0.00  0.00    -0.246 OA
ATOM     39  OD1 ASP A   8      13.631  37.109  19.886  0.00  0.00    -0.246 OA
ENDBRANCH  36  37
ENDBRANCH  16  36
ENDBRANCH  14  16
ENDBRANCH  11  12
BRANCH  11  40
ATOM     40  CB  ASP A   7      16.394  35.746  22.412  0.00  0.00    +0.143 C 
BRANCH  40  41
ATOM     41  CG  ASP A   7      17.848  36.115  22.502  0.00  0.00    +0.367 C 
ATOM     42  OD2 ASP A   7      18.655  35.349  23.074  0.00  0.00    -0.246 OA
ATOM     43  OD1 ASP A   7      18.174  37.206  22.002  0.00  0.00    -0.246 OA
ENDBRANCH  40  41
ENDBRANCH  11  40
ENDBRANCH   9  11
ENDBRANCH   5   7
ENDBRANCH   2   5
BRANCH   1  44
ATOM     44  CA  GLY A   5      20.686  29.767  20.742  0.00  0.00    +0.176 C 
BRANCH  44  47
ATOM     45  C   THR A   4      19.893  28.621  22.752  0.00  0.00    +0.243 C 
ATOM     46  O   THR A   4      20.162  29.591  23.478  0.00  0.00    -0.273 OA
ATOM     47  N   GLY A   5      20.127  28.614  21.440  0.00  0.00    -0.295 N 
ATOM     48  H   GLY A   5      19.903  27.757  20.895  0.00  0.00    +0.150 HD
BRANCH  45  49
ATOM     49  CA  THR A   4      19.240  27.362  23.344  0.00  0.00    +0.176 C 
BRANCH  49  51
ATOM     50  C   ASP A   3      17.507  26.921  21.681  0.00  0.00    +0.241 C 
ATOM     51  N   THR A   4      18.594  26.528  22.338  0.00  0.00    -0.295 N 
ATOM     52  H   THR A   4      18.997  25.593  22.127  0.00  0.00    +0.150 HD
ATOM     53  O   ASP A   3      16.982  28.021  21.859  0.00  0.00    -0.273 OA
BRANCH  50  54
ATOM     54  CA  ASP A   3      16.975  25.938  20.623  0.00  0.00    +0.160 C 
BRANCH  54  56
ATOM     55  C   LEU A   2      15.911  23.790  21.080  0.00  0.00    +0.241 C 
ATOM     56  N   ASP A   3      15.849  25.122  21.058  0.00  0.00    -0.297 N 
ATOM     57  H   ASP A   3      14.972  25.592  21.360  0.00  0.00    +0.150 HD
ATOM     58  O   LEU A   2      16.959  23.162  20.959  0.00  0.00    -0.273 OA
BRANCH  55  59
ATOM     59  CA  LEU A   2      14.594  23.038  21.208  0.00  0.00    +0.149 C 
BRANCH  59  61
ATOM     60  C   LEU A   1      13.789  23.239  18.914  0.00  0.00    +0.238 C 
ATOM     61  N   LEU A   2      14.311  22.480  19.880  0.00  0.00    -0.297 N 
ATOM     62  H   LEU A   2      14.520  21.479  19.689  0.00  0.00    +0.150 HD
ATOM     63  O   LEU A   1      13.339  24.360  19.127  0.00  0.00    -0.274 OA
BRANCH  60  64
ATOM     64  CA  LEU A   1      13.750  22.667  17.497  0.00  0.00    +0.145 C 
BRANCH  64  65
ATOM     65  N   LEU A   1      12.404  22.794  16.982  0.00  0.00    -0.238 NA
ATOM     66  H   LEU A   1      12.185  23.621  16.391  0.00  0.00    +0.142 HD
ENDBRANCH  64  65
BRANCH  64  67
ATOM     67  CB  LEU A   1      14.653  23.496  16.580  0.00  0.00    +0.026 C 
BRANCH  67  68
ATOM     68  CG  LEU A   1      15.996  23.084  16.037  0.00  0.00    +0.002 C 
ATOM     69  CD2 LEU A   1      16.045  21.689  15.545  0.00  0.00    +0.000 C 
ATOM     70  CD1 LEU A   1      16.333  24.102  14.918  0.00  0.00    +0.000 C 
ENDBRANCH  67  68
ENDBRANCH  64  67
ENDBRANCH  60  64
ENDBRANCH  59  61
BRANCH  59  71
ATOM     71  CB  LEU A   2      14.701  21.937  22.258  0.00  0.00    +0.029 C 
BRANCH  71  72
ATOM     72  CG  LEU A   2      13.469  21.055  22.457  0.00  0.00    +0.002 C 
ATOM     73  CD2 LEU A   2      13.764  20.004  23.503  0.00  0.00    +0.000 C 
ATOM     74  CD1 LEU A   2      12.256  21.886  22.845  0.00  0.00    +0.000 C 
ENDBRANCH  71  72
ENDBRANCH  59  71
ENDBRANCH  55  59
ENDBRANCH  54  56
BRANCH  54  75
ATOM     75  CB  ASP A   3      16.574  26.703  19.354  0.00  0.00    +0.143 C 
BRANCH  75  76
ATOM     76  CG  ASP A   3      17.759  27.325  18.645  0.00  0.00    +0.367 C 
ATOM     77  OD2 ASP A   3      18.893  27.218  19.165  0.00  0.00    -0.246 OA
ATOM     78  OD1 ASP A   3      17.559  27.898  17.550  0.00  0.00    -0.246 OA
ENDBRANCH  75  76
ENDBRANCH  54  75
ENDBRANCH  50  54
ENDBRANCH  49  51
BRANCH  49  79
ATOM     79  CB  THR A   4      20.295  26.557  24.117  0.00  0.00    +0.137 C 
ATOM     80  CG2 THR A   4      19.642  25.399  24.851  0.00  0.00    +0.034 C 
BRANCH  79  81
ATOM     81  OG1 THR A   4      21.296  26.057  23.216  0.00  0.00    -0.382 OA
ATOM     82  HG1 THR A   4      21.737  26.817  22.760  0.00  0.00    +0.210 HD
ENDBRANCH  79  81
ENDBRANCH  49  79
ENDBRANCH  45  49
ENDBRANCH  44  47
ENDBRANCH   1  44
TORSDOF 35
REMARK  Name = ../refined-set-2016/2psu/2psu_pocket.pdb
REMARK  219 active torsions:
REMARK  status: ('A' for Active; 'I' for Inactive)
REMARK    1  A    between atoms: _1  and  _3
REMARK    2  A    between atoms: _3  and  _4
REMARK    3  A    between atoms: _3  and  _6
REMARK    4  A    between atoms: _6  and  _7
REMARK    5  A    between atoms: _7  and  _8
REMARK    6  A    between atoms: _8  and  _9
REMARK    7  A    between atoms: _18  and  _20
REMARK    8  A    between atoms: _20  and  _21
REMARK    9  A    between atoms: _20  and  _23
REMARK   10  A    between atoms: _23  and  _24
REMARK   11  A    between atoms: _27  and  _29
REMARK   12  A    between atoms: _29  and  _30
REMARK   13  A    between atoms: _29  and  _32
REMARK   14  A    between atoms: _32  and  _33
REMARK   15  A    between atoms: _36  and  _38
REMARK   16  A    between atoms: _38  and  _39
REMARK   17  A    between atoms: _38  and  _41
REMARK   18  A    between atoms: _41  and  _42
REMARK   19  A    between atoms: _45  and  _47
REMARK   20  A    between atoms: _47  and  _48
REMARK   21  A    between atoms: _47  and  _50
REMARK   22  A    between atoms: _50  and  _51
REMARK   23  A    between atoms: _54  and  _56
REMARK   24  A    between atoms: _56  and  _57
REMARK   25  A    between atoms: _59  and  _61
REMARK   26  A    between atoms: _61  and  _62
REMARK   27  A    between atoms: _65  and  _67
REMARK   28  A    between atoms: _67  and  _68
REMARK   29  A    between atoms: _67  and  _70
REMARK   30  A    between atoms: _70  and  _71
REMARK   31  A    between atoms: _74  and  _76
REMARK   32  A    between atoms: _76  and  _77
REMARK   33  A    between atoms: _76  and  _79
REMARK   34  A    between atoms: _79  and  _80
REMARK   35  A    between atoms: _83  and  _85
REMARK   36  A    between atoms: _85  and  _86
REMARK   37  A    between atoms: _85  and  _88
REMARK   38  A    between atoms: _88  and  _89
REMARK   39  A    between atoms: _92  and  _94
REMARK   40  A    between atoms: _94  and  _95
REMARK   41  A    between atoms: _94  and  _97
REMARK   42  A    between atoms: _100  and  _102
REMARK   43  A    between atoms: _102  and  _103
REMARK   44  A    between atoms: _102  and  _105
REMARK   45  A    between atoms: _105  and  _106
REMARK   46  A    between atoms: _106  and  _107
REMARK   47  A    between atoms: _109  and  _111
REMARK   48  A    between atoms: _111  and  _112
REMARK   49  A    between atoms: _111  and  _114
REMARK   50  A    between atoms: _114  and  _115
REMARK   51  A    between atoms: _118  and  _120
REMARK   52  A    between atoms: _120  and  _121
REMARK   53  A    between atoms: _123  and  _125
REMARK   54  A    between atoms: _125  and  _126
REMARK   55  A    between atoms: _128  and  _130
REMARK   56  A    between atoms: _130  and  _131
REMARK   57  A    between atoms: _130  and  _133
REMARK   58  A    between atoms: _133  and  _134
REMARK   59  A    between atoms: _137  and  _139
REMARK   60  A    between atoms: _139  and  _140
REMARK   61  A    between atoms: _142  and  _144
REMARK   62  A    between atoms: _144  and  _145
REMARK   63  A    between atoms: _147  and  _149
REMARK   64  A    between atoms: _149  and  _150
REMARK   65  A    between atoms: _149  and  _152
REMARK   66  A    between atoms: _152  and  _153
REMARK   67  A    between atoms: _159  and  _161
REMARK   68  A    between atoms: _161  and  _162
REMARK   69  A    between atoms: _161  and  _164
REMARK   70  A    between atoms: _164  and  _165
REMARK   71  A    between atoms: _168  and  _170
REMARK   72  A    between atoms: _170  and  _171
REMARK   73  A    between atoms: _170  and  _173
REMARK   74  A    between atoms: _173  and  _174
REMARK   75  A    between atoms: _177  and  _179
REMARK   76  A    between atoms: _179  and  _180
REMARK   77  A    between atoms: _179  and  _182
REMARK   78  A    between atoms: _182  and  _183
REMARK   79  A    between atoms: _187  and  _188
REMARK   80  A    between atoms: _193  and  _195
REMARK   81  A    between atoms: _195  and  _196
REMARK   82  A    between atoms: _195  and  _198
REMARK   83  A    between atoms: _201  and  _203
REMARK   84  A    between atoms: _203  and  _204
REMARK   85  A    between atoms: _203  and  _206
REMARK   86  A    between atoms: _206  and  _207
REMARK   87  A    between atoms: _212  and  _214
REMARK   88  A    between atoms: _214  and  _215
REMARK   89  A    between atoms: _214  and  _217
REMARK   90  A    between atoms: _217  and  _218
REMARK   91  A    between atoms: _221  and  _223
REMARK   92  A    between atoms: _223  and  _224
REMARK   93  A    between atoms: _223  and  _226
REMARK   94  A    between atoms: _226  and  _227
REMARK   95  A    between atoms: _230  and  _232
REMARK   96  A    between atoms: _232  and  _233
REMARK   97  A    between atoms: _235  and  _237
REMARK   98  A    between atoms: _237  and  _238
REMARK   99  A    between atoms: _237  and  _240
REMARK  100  A    between atoms: _240  and  _241
REMARK  101  A    between atoms: _241  and  _242
REMARK  102  A    between atoms: _242  and  _243
REMARK  103  A    between atoms: _252  and  _254
REMARK  104  A    between atoms: _254  and  _255
REMARK  105  A    between atoms: _254  and  _257
REMARK  106  A    between atoms: _257  and  _258
REMARK  107  A    between atoms: _263  and  _265
REMARK  108  A    between atoms: _265  and  _266
REMARK  109  A    between atoms: _265  and  _268
REMARK  110  A    between atoms: _268  and  _269
REMARK  111  A    between atoms: _269  and  _270
REMARK  112  A    between atoms: _270  and  _271
REMARK  113  A    between atoms: _280  and  _282
REMARK  114  A    between atoms: _282  and  _283
REMARK  115  A    between atoms: _282  and  _285
REMARK  116  A    between atoms: _285  and  _286
REMARK  117  A    between atoms: _289  and  _291
REMARK  118  A    between atoms: _291  and  _292
REMARK  119  A    between atoms: _291  and  _294
REMARK  120  A    between atoms: _294  and  _295
REMARK  121  A    between atoms: _298  and  _300
REMARK  122  A    between atoms: _300  and  _301
REMARK  123  A    between atoms: _300  and  _303
REMARK  124  A    between atoms: _303  and  _304
REMARK  125  A    between atoms: _307  and  _309
REMARK  126  A    between atoms: _309  and  _310
REMARK  127  A    between atoms: _309  and  _312
REMARK  128  A    between atoms: _312  and  _313
REMARK  129  A    between atoms: _316  and  _318
REMARK  130  A    between atoms: _318  and  _319
REMARK  131  A    between atoms: _321  and  _323
REMARK  132  A    between atoms: _323  and  _324
REMARK  133  A    between atoms: _327  and  _329
REMARK  134  A    between atoms: _329  and  _330
REMARK  135  A    between atoms: _329  and  _332
REMARK  136  A    between atoms: _332  and  _333
REMARK  137  A    between atoms: _336  and  _338
REMARK  138  A    between atoms: _338  and  _339
REMARK  139  A    between atoms: _338  and  _341
REMARK  140  A    between atoms: _341  and  _342
REMARK  141  A    between atoms: _345  and  _347
REMARK  142  A    between atoms: _347  and  _348
REMARK  143  A    between atoms: _347  and  _350
REMARK  144  A    between atoms: _350  and  _351
REMARK  145  A    between atoms: _354  and  _356
REMARK  146  A    between atoms: _356  and  _357
REMARK  147  A    between atoms: _356  and  _359
REMARK  148  A    between atoms: _362  and  _364
REMARK  149  A    between atoms: _364  and  _365
REMARK  150  A    between atoms: _364  and  _367
REMARK  151  A    between atoms: _367  and  _368
REMARK  152  A    between atoms: _368  and  _369
REMARK  153  A    between atoms: _369  and  _370
REMARK  154  A    between atoms: _370  and  _371
REMARK  155  A    between atoms: _375  and  _377
REMARK  156  A    between atoms: _377  and  _378
REMARK  157  A    between atoms: _377  and  _380
REMARK  158  A    between atoms: _380  and  _381
REMARK  159  A    between atoms: _381  and  _382
REMARK  160  A    between atoms: _384  and  _386
REMARK  161  A    between atoms: _386  and  _387
REMARK  162  A    between atoms: _386  and  _389
REMARK  163  A    between atoms: _389  and  _390
REMARK  164  A    between atoms: _393  and  _395
REMARK  165  A    between atoms: _395  and  _396
REMARK  166  A    between atoms: _398  and  _400
REMARK  167  A    between atoms: _400  and  _401
REMARK  168  A    between atoms: _403  and  _405
REMARK  169  A    between atoms: _405  and  _406
REMARK  170  A    between atoms: _405  and  _408
REMARK  171  A    between atoms: _408  and  _409
REMARK  172  A    between atoms: _412  and  _414
REMARK  173  A    between atoms: _414  and  _415
REMARK  174  A    between atoms: _417  and  _419
REMARK  175  A    between atoms: _419  and  _420
REMARK  176  A    between atoms: _422  and  _424
REMARK  177  A    between atoms: _424  and  _425
REMARK  178  A    between atoms: _424  and  _427
REMARK  179  A    between atoms: _427  and  _428
REMARK  180  A    between atoms: _434  and  _436
REMARK  181  A    between atoms: _436  and  _437
REMARK  182  A    between atoms: _436  and  _439
REMARK  183  A    between atoms: _439  and  _440
REMARK  184  A    between atoms: _443  and  _445
REMARK  185  A    between atoms: _445  and  _446
REMARK  186  A    between atoms: _445  and  _448
REMARK  187  A    between atoms: _448  and  _449
REMARK  188  A    between atoms: _452  and  _454
REMARK  189  A    between atoms: _454  and  _455
REMARK  190  A    between atoms: _454  and  _457
REMARK  191  A    between atoms: _457  and  _458
REMARK  192  A    between atoms: _462  and  _463
REMARK  193  A    between atoms: _468  and  _470
REMARK  194  A    between atoms: _470  and  _471
REMARK  195  A    between atoms: _470  and  _473
REMARK  196  A    between atoms: _476  and  _478
REMARK  197  A    between atoms: _478  and  _479
REMARK  198  A    between atoms: _478  and  _481
REMARK  199  A    between atoms: _481  and  _482
REMARK  200  A    between atoms: _487  and  _489
REMARK  201  A    between atoms: _489  and  _490
REMARK  202  A    between atoms: _489  and  _492
REMARK  203  A    between atoms: _492  and  _493
REMARK  204  A    between atoms: _496  and  _498
REMARK  205  A    between atoms: _498  and  _499
REMARK  206  A    between atoms: _498  and  _501
REMARK  207  A    between atoms: _501  and  _502
REMARK  208  A    between atoms: _505  and  _507
REMARK  209  A    between atoms: _507  and  _508
REMARK  210  A    between atoms: _510  and  _512
REMARK  211  A    between atoms: _512  and  _513
REMARK  212  A    between atoms: _512  and  _515
REMARK  213  A    between atoms: _515  and  _516
REMARK  214  A    between atoms: _516  and  _517
REMARK  215  A    between atoms: _517  and  _518
REMARK  216  A    between atoms: _527  and  _529
REMARK  217  A    between atoms: _529  and  _530
REMARK  218  A    between atoms: _529  and  _532
REMARK  219  A    between atoms: _532  and  _533
REMARK                            x       y       z     vdW  Elec       q    Type
REMARK                         _______ _______ _______ _____ _____    ______ ____
ROOT
ATOM      1  C   GLY A   5      21.461  35.399  11.204  0.00  0.00    +0.243 C 
ATOM      2  N   ILE A   6      21.930  34.179  11.011  0.00  0.00    -0.297 N 
ATOM      3  H   ILE A   6      21.694  33.428  11.691  0.00  0.00    +0.150 HD
ATOM      4  O   GLY A   5      21.777  36.348  10.488  0.00  0.00    -0.273 OA
ENDROOT
BRANCH   2   5
ATOM      5  CA  ILE A   6      22.768  33.868   9.868  0.00  0.00    +0.149 C 
BRANCH   5   6
ATOM      6  C   ILE A   6      21.944  34.115   8.598  0.00  0.00    +0.241 C 
ATOM      7  O   ILE A   6      20.795  33.682   8.495  0.00  0.00    -0.273 OA
ATOM      8  N   GLY A   7      22.525  34.867   7.669  0.00  0.00    -0.295 N 
ATOM      9  H   GLY A   7      23.497  35.200   7.829  0.00  0.00    +0.150 HD
BRANCH   8  10
ATOM     10  CA  GLY A   7      21.849  35.242   6.435  0.00  0.00    +0.176 C 
BRANCH  10  11
ATOM     11  C   GLY A   7      21.181  36.602   6.468  0.00  0.00    +0.243 C 
ATOM     12  N   GLY A   8      20.879  37.118   7.658  0.00  0.00    -0.295 N 
ATOM     13  H   GLY A   8      21.095  36.576   8.519  0.00  0.00    +0.150 HD
ATOM     14  O   GLY A   7      20.939  37.187   5.418  0.00  0.00    -0.273 OA
BRANCH  12  15
ATOM     15  CA  GLY A   8      20.250  38.430   7.777  0.00  0.00    +0.176 C 
BRANCH  15  16
ATOM     16  C   GLY A   8      18.952  38.362   8.562  0.00  0.00    +0.243 C 
ATOM     17  O   GLY A   8      18.796  37.517   9.449  0.00  0.00    -0.273 OA
ATOM     18  N   PHE A   9      18.022  39.257   8.234  0.00  0.00    -0.297 N 
ATOM     19  H   PHE A   9      18.165  39.856   7.396  0.00  0.00    +0.150 HD
BRANCH  18  20
ATOM     20  CA  PHE A   9      16.807  39.415   9.026  0.00  0.00    +0.153 C 
BRANCH  20  21
ATOM     21  C   PHE A   9      15.590  38.890   8.300  0.00  0.00    +0.241 C 
ATOM     22  N   ILE A  10      14.603  38.436   9.075  0.00  0.00    -0.298 N 
ATOM     23  H   ILE A  10      14.795  38.268  10.083  0.00  0.00    +0.150 HD
ATOM     24  O   PHE A   9      15.558  38.874   7.066  0.00  0.00    -0.273 OA
BRANCH  22  25
ATOM     25  CA  ILE A  10      13.267  38.167   8.560  0.00  0.00    +0.137 C 
BRANCH  25  26
ATOM     26  C   ILE A  10      12.239  38.988   9.326  0.00  0.00    +0.227 C 
ATOM     27  O   ILE A  10      12.446  39.323  10.504  0.00  0.00    -0.286 OA
ENDBRANCH  25  26
BRANCH  25  28
ATOM     28  CB  ILE A  10      12.869  36.655   8.584  0.00  0.00    +0.026 C 
ATOM     29  CG2 ILE A  10      13.796  35.879   7.679  0.00  0.00    +0.002 C 
BRANCH  28  30
ATOM     30  CG1 ILE A  10      12.866  36.075   9.999  0.00  0.00    +0.002 C 
ATOM     31  CD1 ILE A  10      11.995  34.811  10.147  0.00  0.00    +0.000 C 
ENDBRANCH  28  30
ENDBRANCH  25  28
ENDBRANCH  22  25
ENDBRANCH  20  21
BRANCH  20  32
ATOM     32  CB  PHE A   9      16.597  40.884   9.409  0.00  0.00    +0.055 C 
BRANCH  32  33
ATOM     33  CG  PHE A   9      17.471  41.350  10.544  0.00  0.00    -0.020 A 
ATOM     34  CD2 PHE A   9      16.930  41.612  11.796  0.00  0.00    -0.004 A 
ATOM     35  CE2 PHE A   9      17.730  42.053  12.831  0.00  0.00    -0.000 A 
ATOM     36  CZ  PHE A   9      19.086  42.243  12.627  0.00  0.00    -0.000 A 
ATOM     37  CE1 PHE A   9      19.641  41.993  11.389  0.00  0.00    -0.000 A 
ATOM     38  CD1 PHE A   9      18.834  41.549  10.351  0.00  0.00    -0.004 A 
ENDBRANCH  32  33
ENDBRANCH  20  32
ENDBRANCH  18  20
ENDBRANCH  15  16
ENDBRANCH  12  15
ENDBRANCH  10  11
ENDBRANCH   8  10
ENDBRANCH   5   6
BRANCH   5  39
ATOM     39  CB  ILE A   6      23.315  32.420   9.948  0.00  0.00    +0.027 C 
ATOM     40  CG2 ILE A   6      23.865  31.954   8.612  0.00  0.00    +0.002 C 
BRANCH  39  41
ATOM     41  CG1 ILE A   6      24.396  32.338  11.034  0.00  0.00    +0.002 C 
ATOM     42  CD1 ILE A   6      24.815  30.914  11.397  0.00  0.00    +0.000 C 
ENDBRANCH  39  41
ENDBRANCH   5  39
ENDBRANCH   2   5
BRANCH   1  43
ATOM     43  CA  GLY A   5      20.497  35.569  12.370  0.00  0.00    +0.176 C 
BRANCH  43  46
ATOM     44  C   GLY A   4      19.043  37.368  13.135  0.00  0.00    +0.243 C 
ATOM     45  O   GLY A   4      19.115  37.047  14.327  0.00  0.00    -0.273 OA
ATOM     46  N   GLY A   5      19.606  36.684  12.146  0.00  0.00    -0.295 N 
ATOM     47  H   GLY A   5      19.396  36.963  11.166  0.00  0.00    +0.150 HD
BRANCH  44  48
ATOM     48  CA  GLY A   4      18.280  38.593  12.703  0.00  0.00    +0.176 C 
BRANCH  48  50
ATOM     49  C   ILE A   3      15.877  38.803  12.984  0.00  0.00    +0.241 C 
ATOM     50  N   GLY A   4      17.097  38.804  13.507  0.00  0.00    -0.295 N 
ATOM     51  H   GLY A   4      17.206  38.962  14.529  0.00  0.00    +0.150 HD
ATOM     52  O   ILE A   3      15.639  38.502  11.807  0.00  0.00    -0.273 OA
BRANCH  49  53
ATOM     53  CA  ILE A   3      14.762  39.242  13.940  0.00  0.00    +0.149 C 
BRANCH  53  56
ATOM     54  C   MET A   2      13.374  41.207  13.624  0.00  0.00    +0.241 C 
ATOM     55  O   MET A   2      13.706  41.677  14.716  0.00  0.00    -0.273 OA
ATOM     56  N   ILE A   3      13.749  40.002  13.207  0.00  0.00    -0.297 N 
ATOM     57  H   ILE A   3      13.319  39.596  12.352  0.00  0.00    +0.150 HD
BRANCH  54  58
ATOM     58  CA  MET A   2      12.460  41.991  12.713  0.00  0.00    +0.149 C 
BRANCH  58  60
ATOM     59  C   LYS A   1      10.108  42.189  13.345  0.00  0.00    +0.238 C 
ATOM     60  N   MET A   2      11.385  42.504  13.532  0.00  0.00    -0.297 N 
ATOM     61  H   MET A   2      11.624  43.154  14.308  0.00  0.00    +0.150 HD
ATOM     62  O   LYS A   1       9.695  41.548  12.388  0.00  0.00    -0.274 OA
BRANCH  59  63
ATOM     63  CA  LYS A   1       9.145  42.731  14.409  0.00  0.00    +0.145 C 
BRANCH  63  64
ATOM     64  N   LYS A   1       7.826  42.827  13.809  0.00  0.00    -0.238 NA
ATOM     65  H   LYS A   1       7.593  42.208  13.006  0.00  0.00    +0.142 HD
ENDBRANCH  63  64
BRANCH  63  66
ATOM     66  CB  LYS A   1       9.093  41.817  15.642  0.00  0.00    +0.026 C 
BRANCH  66  67
ATOM     67  CG  LYS A   1      10.344  41.791  16.527  0.00  0.00    -0.000 C 
BRANCH  67  68
ATOM     68  CD  LYS A   1      10.152  40.798  17.673  0.00  0.00    -0.024 C 
BRANCH  68  69
ATOM     69  CE  LYS A   1      11.434  40.503  18.429  0.00  0.00    -0.086 C 
BRANCH  69  70
ATOM     70  NZ  LYS A   1      11.739  41.499  19.460  0.00  0.00    +0.380 N 
ATOM     71  HZ1 LYS A   1      10.964  41.527  20.153  0.00  0.00    -0.089 HD
ATOM     72  HZ2 LYS A   1      12.625  41.240  19.939  0.00  0.00    -0.089 HD
ATOM     73  HZ3 LYS A   1      11.843  42.434  19.017  0.00  0.00    -0.089 HD
ENDBRANCH  69  70
ENDBRANCH  68  69
ENDBRANCH  67  68
ENDBRANCH  66  67
ENDBRANCH  63  66
ENDBRANCH  59  63
ENDBRANCH  58  60
BRANCH  58  74
ATOM     74  CB  MET A   2      13.241  43.147  12.091  0.00  0.00    +0.041 C 
BRANCH  74  75
ATOM     75  CG  MET A   2      12.470  43.889  11.030  0.00  0.00    +0.060 C 
BRANCH  75  76
ATOM     76  SD  MET A   2      12.377  42.934   9.514  0.00  0.00    -0.139 S 
ATOM     77  CE  MET A   2      13.896  43.449   8.726  0.00  0.00    +0.069 C 
ENDBRANCH  75  76
ENDBRANCH  74  75
ENDBRANCH  58  74
ENDBRANCH  54  58
ENDBRANCH  53  56
BRANCH  53  78
ATOM     78  CB  ILE A   3      14.169  38.037  14.702  0.00  0.00    +0.027 C 
ATOM     79  CG2 ILE A   3      13.340  38.518  15.882  0.00  0.00    +0.002 C 
BRANCH  78  80
ATOM     80  CG1 ILE A   3      13.320  37.159  13.790  0.00  0.00    +0.002 C 
ATOM     81  CD1 ILE A   3      13.038  35.798  14.375  0.00  0.00    +0.000 C 
ENDBRANCH  78  80
ENDBRANCH  53  78
ENDBRANCH  49  53
ENDBRANCH  48  50
ENDBRANCH  44  48
ENDBRANCH  43  46
ENDBRANCH   1  43
TORSDOF 36
REMARK  Name = ../refined-set-2016/2psu/2psu_pocket.pdb
REMARK  219 active torsions:
REMARK  status: ('A' for Active; 'I' for Inactive)
REMARK    1  A    between atoms: _1  and  _3
REMARK    2  A    between atoms: _3  and  _4
REMARK    3  A    between atoms: _3  and  _6
REMARK    4  A    between atoms: _6  and  _7
REMARK    5  A    between atoms: _7  and  _8
REMARK    6  A    between atoms: _8  and  _9
REMARK    7  A    between atoms: _18  and  _20
REMARK    8  A    between atoms: _20  and  _21
REMARK    9  A    between atoms: _20  and  _23
REMARK   10  A    between atoms: _23  and  _24
REMARK   11  A    between atoms: _27  and  _29
REMARK   12  A    between atoms: _29  and  _30
REMARK   13  A    between atoms: _29  and  _32
REMARK   14  A    between atoms: _32  and  _33
REMARK   15  A    between atoms: _36  and  _38
REMARK   16  A    between atoms: _38  and  _39
REMARK   17  A    between atoms: _38  and  _41
REMARK   18  A    between atoms: _41  and  _42
REMARK   19  A    between atoms: _45  and  _47
REMARK   20  A    between atoms: _47  and  _48
REMARK   21  A    between atoms: _47  and  _50
REMARK   22  A    between atoms: _50  and  _51
REMARK   23  A    between atoms: _54  and  _56
REMARK   24  A    between atoms: _56  and  _57
REMARK   25  A    between atoms: _59  and  _61
REMARK   26  A    between atoms: _61  and  _62
REMARK   27  A    between atoms: _65  and  _67
REMARK   28  A    between atoms: _67  and  _68
REMARK   29  A    between atoms: _67  and  _70
REMARK   30  A    between atoms: _70  and  _71
REMARK   31  A    between atoms: _74  and  _76
REMARK   32  A    between atoms: _76  and  _77
REMARK   33  A    between atoms: _76  and  _79
REMARK   34  A    between atoms: _79  and  _80
REMARK   35  A    between atoms: _83  and  _85
REMARK   36  A    between atoms: _85  and  _86
REMARK   37  A    between atoms: _85  and  _88
REMARK   38  A    between atoms: _88  and  _89
REMARK   39  A    between atoms: _92  and  _94
REMARK   40  A    between atoms: _94  and  _95
REMARK   41  A    between atoms: _94  and  _97
REMARK   42  A    between atoms: _100  and  _102
REMARK   43  A    between atoms: _102  and  _103
REMARK   44  A    between atoms: _102  and  _105
REMARK   45  A    between atoms: _105  and  _106
REMARK   46  A    between atoms: _106  and  _107
REMARK   47  A    between atoms: _109  and  _111
REMARK   48  A    between atoms: _111  and  _112
REMARK   49  A    between atoms: _111  and  _114
REMARK   50  A    between atoms: _114  and  _115
REMARK   51  A    between atoms: _118  and  _120
REMARK   52  A    between atoms: _120  and  _121
REMARK   53  A    between atoms: _123  and  _125
REMARK   54  A    between atoms: _125  and  _126
REMARK   55  A    between atoms: _128  and  _130
REMARK   56  A    between atoms: _130  and  _131
REMARK   57  A    between atoms: _130  and  _133
REMARK   58  A    between atoms: _133  and  _134
REMARK   59  A    between atoms: _137  and  _139
REMARK   60  A    between atoms: _139  and  _140
REMARK   61  A    between atoms: _142  and  _144
REMARK   62  A    between atoms: _144  and  _145
REMARK   63  A    between atoms: _147  and  _149
REMARK   64  A    between atoms: _149  and  _150
REMARK   65  A    between atoms: _149  and  _152
REMARK   66  A    between atoms: _152  and  _153
REMARK   67  A    between atoms: _159  and  _161
REMARK   68  A    between atoms: _161  and  _162
REMARK   69  A    between atoms: _161  and  _164
REMARK   70  A    between atoms: _164  and  _165
REMARK   71  A    between atoms: _168  and  _170
REMARK   72  A    between atoms: _170  and  _171
REMARK   73  A    between atoms: _170  and  _173
REMARK   74  A    between atoms: _173  and  _174
REMARK   75  A    between atoms: _177  and  _179
REMARK   76  A    between atoms: _179  and  _180
REMARK   77  A    between atoms: _179  and  _182
REMARK   78  A    between atoms: _182  and  _183
REMARK   79  A    between atoms: _187  and  _188
REMARK   80  A    between atoms: _193  and  _195
REMARK   81  A    between atoms: _195  and  _196
REMARK   82  A    between atoms: _195  and  _198
REMARK   83  A    between atoms: _201  and  _203
REMARK   84  A    between atoms: _203  and  _204
REMARK   85  A    between atoms: _203  and  _206
REMARK   86  A    between atoms: _206  and  _207
REMARK   87  A    between atoms: _212  and  _214
REMARK   88  A    between atoms: _214  and  _215
REMARK   89  A    between atoms: _214  and  _217
REMARK   90  A    between atoms: _217  and  _218
REMARK   91  A    between atoms: _221  and  _223
REMARK   92  A    between atoms: _223  and  _224
REMARK   93  A    between atoms: _223  and  _226
REMARK   94  A    between atoms: _226  and  _227
REMARK   95  A    between atoms: _230  and  _232
REMARK   96  A    between atoms: _232  and  _233
REMARK   97  A    between atoms: _235  and  _237
REMARK   98  A    between atoms: _237  and  _238
REMARK   99  A    between atoms: _237  and  _240
REMARK  100  A    between atoms: _240  and  _241
REMARK  101  A    between atoms: _241  and  _242
REMARK  102  A    between atoms: _242  and  _243
REMARK  103  A    between atoms: _252  and  _254
REMARK  104  A    between atoms: _254  and  _255
REMARK  105  A    between atoms: _254  and  _257
REMARK  106  A    between atoms: _257  and  _258
REMARK  107  A    between atoms: _263  and  _265
REMARK  108  A    between atoms: _265  and  _266
REMARK  109  A    between atoms: _265  and  _268
REMARK  110  A    between atoms: _268  and  _269
REMARK  111  A    between atoms: _269  and  _270
REMARK  112  A    between atoms: _270  and  _271
REMARK  113  A    between atoms: _280  and  _282
REMARK  114  A    between atoms: _282  and  _283
REMARK  115  A    between atoms: _282  and  _285
REMARK  116  A    between atoms: _285  and  _286
REMARK  117  A    between atoms: _289  and  _291
REMARK  118  A    between atoms: _291  and  _292
REMARK  119  A    between atoms: _291  and  _294
REMARK  120  A    between atoms: _294  and  _295
REMARK  121  A    between atoms: _298  and  _300
REMARK  122  A    between atoms: _300  and  _301
REMARK  123  A    between atoms: _300  and  _303
REMARK  124  A    between atoms: _303  and  _304
REMARK  125  A    between atoms: _307  and  _309
REMARK  126  A    between atoms: _309  and  _310
REMARK  127  A    between atoms: _309  and  _312
REMARK  128  A    between atoms: _312  and  _313
REMARK  129  A    between atoms: _316  and  _318
REMARK  130  A    between atoms: _318  and  _319
REMARK  131  A    between atoms: _321  and  _323
REMARK  132  A    between atoms: _323  and  _324
REMARK  133  A    between atoms: _327  and  _329
REMARK  134  A    between atoms: _329  and  _330
REMARK  135  A    between atoms: _329  and  _332
REMARK  136  A    between atoms: _332  and  _333
REMARK  137  A    between atoms: _336  and  _338
REMARK  138  A    between atoms: _338  and  _339
REMARK  139  A    between atoms: _338  and  _341
REMARK  140  A    between atoms: _341  and  _342
REMARK  141  A    between atoms: _345  and  _347
REMARK  142  A    between atoms: _347  and  _348
REMARK  143  A    between atoms: _347  and  _350
REMARK  144  A    between atoms: _350  and  _351
REMARK  145  A    between atoms: _354  and  _356
REMARK  146  A    between atoms: _356  and  _357
REMARK  147  A    between atoms: _356  and  _359
REMARK  148  A    between atoms: _362  and  _364
REMARK  149  A    between atoms: _364  and  _365
REMARK  150  A    between atoms: _364  and  _367
REMARK  151  A    between atoms: _367  and  _368
REMARK  152  A    between atoms: _368  and  _369
REMARK  153  A    between atoms: _369  and  _370
REMARK  154  A    between atoms: _370  and  _371
REMARK  155  A    between atoms: _375  and  _377
REMARK  156  A    between atoms: _377  and  _378
REMARK  157  A    between atoms: _377  and  _380
REMARK  158  A    between atoms: _380  and  _381
REMARK  159  A    between atoms: _381  and  _382
REMARK  160  A    between atoms: _384  and  _386
REMARK  161  A    between atoms: _386  and  _387
REMARK  162  A    between atoms: _386  and  _389
REMARK  163  A    between atoms: _389  and  _390
REMARK  164  A    between atoms: _393  and  _395
REMARK  165  A    between atoms: _395  and  _396
REMARK  166  A    between atoms: _398  and  _400
REMARK  167  A    between atoms: _400  and  _401
REMARK  168  A    between atoms: _403  and  _405
REMARK  169  A    between atoms: _405  and  _406
REMARK  170  A    between atoms: _405  and  _408
REMARK  171  A    between atoms: _408  and  _409
REMARK  172  A    between atoms: _412  and  _414
REMARK  173  A    between atoms: _414  and  _415
REMARK  174  A    between atoms: _417  and  _419
REMARK  175  A    between atoms: _419  and  _420
REMARK  176  A    between atoms: _422  and  _424
REMARK  177  A    between atoms: _424  and  _425
REMARK  178  A    between atoms: _424  and  _427
REMARK  179  A    between atoms: _427  and  _428
REMARK  180  A    between atoms: _434  and  _436
REMARK  181  A    between atoms: _436  and  _437
REMARK  182  A    between atoms: _436  and  _439
REMARK  183  A    between atoms: _439  and  _440
REMARK  184  A    between atoms: _443  and  _445
REMARK  185  A    between atoms: _445  and  _446
REMARK  186  A    between atoms: _445  and  _448
REMARK  187  A    between atoms: _448  and  _449
REMARK  188  A    between atoms: _452  and  _454
REMARK  189  A    between atoms: _454  and  _455
REMARK  190  A    between atoms: _454  and  _457
REMARK  191  A    between atoms: _457  and  _458
REMARK  192  A    between atoms: _462  and  _463
REMARK  193  A    between atoms: _468  and  _470
REMARK  194  A    between atoms: _470  and  _471
REMARK  195  A    between atoms: _470  and  _473
REMARK  196  A    between atoms: _476  and  _478
REMARK  197  A    between atoms: _478  and  _479
REMARK  198  A    between atoms: _478  and  _481
REMARK  199  A    between atoms: _481  and  _482
REMARK  200  A    between atoms: _487  and  _489
REMARK  201  A    between atoms: _489  and  _490
REMARK  202  A    between atoms: _489  and  _492
REMARK  203  A    between atoms: _492  and  _493
REMARK  204  A    between atoms: _496  and  _498
REMARK  205  A    between atoms: _498  and  _499
REMARK  206  A    between atoms: _498  and  _501
REMARK  207  A    between atoms: _501  and  _502
REMARK  208  A    between atoms: _505  and  _507
REMARK  209  A    between atoms: _507  and  _508
REMARK  210  A    between atoms: _510  and  _512
REMARK  211  A    between atoms: _512  and  _513
REMARK  212  A    between atoms: _512  and  _515
REMARK  213  A    between atoms: _515  and  _516
REMARK  214  A    between atoms: _516  and  _517
REMARK  215  A    between atoms: _517  and  _518
REMARK  216  A    between atoms: _527  and  _529
REMARK  217  A    between atoms: _529  and  _530
REMARK  218  A    between atoms: _529  and  _532
REMARK  219  A    between atoms: _532  and  _533
REMARK                            x       y       z     vdW  Elec       q    Type
REMARK                         _______ _______ _______ _____ _____    ______ ____
ROOT
ATOM      1  CA  LEU A   1       6.996  35.173  16.557  0.00  0.00    +0.133 C 
ENDROOT
BRANCH   1   2
ATOM      2  N   LEU A   1       6.742  34.434  17.783  0.00  0.00    -0.239 NA
ATOM      3  H   LEU A   1       7.483  33.799  18.141  0.00  0.00    +0.142 HD
ENDBRANCH   1   2
BRANCH   1   4
ATOM      4  C   LEU A   1       6.649  34.292  15.365  0.00  0.00    +0.224 C 
ATOM      5  O   LEU A   1       7.081  33.152  15.295  0.00  0.00    -0.287 OA
ENDBRANCH   1   4
BRANCH   1   6
ATOM      6  CB  LEU A   1       8.461  35.597  16.482  0.00  0.00    +0.025 C 
BRANCH   6   7
ATOM      7  CG  LEU A   1       8.998  36.336  17.709  0.00  0.00    +0.002 C 
ATOM      8  CD2 LEU A   1       8.124  37.562  18.045  0.00  0.00    +0.000 C 
ATOM      9  CD1 LEU A   1      10.427  36.762  17.464  0.00  0.00    +0.000 C 
ENDBRANCH   6   7
ENDBRANCH   1   6
TORSDOF 4
REMARK  Name = ../refined-set-2016/2psu/2psu_pocket.pdb
REMARK  219 active torsions:
REMARK  status: ('A' for Active; 'I' for Inactive)
REMARK    1  A    between atoms: _1  and  _3
REMARK    2  A    between atoms: _3  and  _4
REMARK    3  A    between atoms: _3  and  _6
REMARK    4  A    between atoms: _6  and  _7
REMARK    5  A    between atoms: _7  and  _8
REMARK    6  A    between atoms: _8  and  _9
REMARK    7  A    between atoms: _18  and  _20
REMARK    8  A    between atoms: _20  and  _21
REMARK    9  A    between atoms: _20  and  _23
REMARK   10  A    between atoms: _23  and  _24
REMARK   11  A    between atoms: _27  and  _29
REMARK   12  A    between atoms: _29  and  _30
REMARK   13  A    between atoms: _29  and  _32
REMARK   14  A    between atoms: _32  and  _33
REMARK   15  A    between atoms: _36  and  _38
REMARK   16  A    between atoms: _38  and  _39
REMARK   17  A    between atoms: _38  and  _41
REMARK   18  A    between atoms: _41  and  _42
REMARK   19  A    between atoms: _45  and  _47
REMARK   20  A    between atoms: _47  and  _48
REMARK   21  A    between atoms: _47  and  _50
REMARK   22  A    between atoms: _50  and  _51
REMARK   23  A    between atoms: _54  and  _56
REMARK   24  A    between atoms: _56  and  _57
REMARK   25  A    between atoms: _59  and  _61
REMARK   26  A    between atoms: _61  and  _62
REMARK   27  A    between atoms: _65  and  _67
REMARK   28  A    between atoms: _67  and  _68
REMARK   29  A    between atoms: _67  and  _70
REMARK   30  A    between atoms: _70  and  _71
REMARK   31  A    between atoms: _74  and  _76
REMARK   32  A    between atoms: _76  and  _77
REMARK   33  A    between atoms: _76  and  _79
REMARK   34  A    between atoms: _79  and  _80
REMARK   35  A    between atoms: _83  and  _85
REMARK   36  A    between atoms: _85  and  _86
REMARK   37  A    between atoms: _85  and  _88
REMARK   38  A    between atoms: _88  and  _89
REMARK   39  A    between atoms: _92  and  _94
REMARK   40  A    between atoms: _94  and  _95
REMARK   41  A    between atoms: _94  and  _97
REMARK   42  A    between atoms: _100  and  _102
REMARK   43  A    between atoms: _102  and  _103
REMARK   44  A    between atoms: _102  and  _105
REMARK   45  A    between atoms: _105  and  _106
REMARK   46  A    between atoms: _106  and  _107
REMARK   47  A    between atoms: _109  and  _111
REMARK   48  A    between atoms: _111  and  _112
REMARK   49  A    between atoms: _111  and  _114
REMARK   50  A    between atoms: _114  and  _115
REMARK   51  A    between atoms: _118  and  _120
REMARK   52  A    between atoms: _120  and  _121
REMARK   53  A    between atoms: _123  and  _125
REMARK   54  A    between atoms: _125  and  _126
REMARK   55  A    between atoms: _128  and  _130
REMARK   56  A    between atoms: _130  and  _131
REMARK   57  A    between atoms: _130  and  _133
REMARK   58  A    between atoms: _133  and  _134
REMARK   59  A    between atoms: _137  and  _139
REMARK   60  A    between atoms: _139  and  _140
REMARK   61  A    between atoms: _142  and  _144
REMARK   62  A    between atoms: _144  and  _145
REMARK   63  A    between atoms: _147  and  _149
REMARK   64  A    between atoms: _149  and  _150
REMARK   65  A    between atoms: _149  and  _152
REMARK   66  A    between atoms: _152  and  _153
REMARK   67  A    between atoms: _159  and  _161
REMARK   68  A    between atoms: _161  and  _162
REMARK   69  A    between atoms: _161  and  _164
REMARK   70  A    between atoms: _164  and  _165
REMARK   71  A    between atoms: _168  and  _170
REMARK   72  A    between atoms: _170  and  _171
REMARK   73  A    between atoms: _170  and  _173
REMARK   74  A    between atoms: _173  and  _174
REMARK   75  A    between atoms: _177  and  _179
REMARK   76  A    between atoms: _179  and  _180
REMARK   77  A    between atoms: _179  and  _182
REMARK   78  A    between atoms: _182  and  _183
REMARK   79  A    between atoms: _187  and  _188
REMARK   80  A    between atoms: _193  and  _195
REMARK   81  A    between atoms: _195  and  _196
REMARK   82  A    between atoms: _195  and  _198
REMARK   83  A    between atoms: _201  and  _203
REMARK   84  A    between atoms: _203  and  _204
REMARK   85  A    between atoms: _203  and  _206
REMARK   86  A    between atoms: _206  and  _207
REMARK   87  A    between atoms: _212  and  _214
REMARK   88  A    between atoms: _214  and  _215
REMARK   89  A    between atoms: _214  and  _217
REMARK   90  A    between atoms: _217  and  _218
REMARK   91  A    between atoms: _221  and  _223
REMARK   92  A    between atoms: _223  and  _224
REMARK   93  A    between atoms: _223  and  _226
REMARK   94  A    between atoms: _226  and  _227
REMARK   95  A    between atoms: _230  and  _232
REMARK   96  A    between atoms: _232  and  _233
REMARK   97  A    between atoms: _235  and  _237
REMARK   98  A    between atoms: _237  and  _238
REMARK   99  A    between atoms: _237  and  _240
REMARK  100  A    between atoms: _240  and  _241
REMARK  101  A    between atoms: _241  and  _242
REMARK  102  A    between atoms: _242  and  _243
REMARK  103  A    between atoms: _252  and  _254
REMARK  104  A    between atoms: _254  and  _255
REMARK  105  A    between atoms: _254  and  _257
REMARK  106  A    between atoms: _257  and  _258
REMARK  107  A    between atoms: _263  and  _265
REMARK  108  A    between atoms: _265  and  _266
REMARK  109  A    between atoms: _265  and  _268
REMARK  110  A    between atoms: _268  and  _269
REMARK  111  A    between atoms: _269  and  _270
REMARK  112  A    between atoms: _270  and  _271
REMARK  113  A    between atoms: _280  and  _282
REMARK  114  A    between atoms: _282  and  _283
REMARK  115  A    between atoms: _282  and  _285
REMARK  116  A    between atoms: _285  and  _286
REMARK  117  A    between atoms: _289  and  _291
REMARK  118  A    between atoms: _291  and  _292
REMARK  119  A    between atoms: _291  and  _294
REMARK  120  A    between atoms: _294  and  _295
REMARK  121  A    between atoms: _298  and  _300
REMARK  122  A    between atoms: _300  and  _301
REMARK  123  A    between atoms: _300  and  _303
REMARK  124  A    between atoms: _303  and  _304
REMARK  125  A    between atoms: _307  and  _309
REMARK  126  A    between atoms: _309  and  _310
REMARK  127  A    between atoms: _309  and  _312
REMARK  128  A    between atoms: _312  and  _313
REMARK  129  A    between atoms: _316  and  _318
REMARK  130  A    between atoms: _318  and  _319
REMARK  131  A    between atoms: _321  and  _323
REMARK  132  A    between atoms: _323  and  _324
REMARK  133  A    between atoms: _327  and  _329
REMARK  134  A    between atoms: _329  and  _330
REMARK  135  A    between atoms: _329  and  _332
REMARK  136  A    between atoms: _332  and  _333
REMARK  137  A    between atoms: _336  and  _338
REMARK  138  A    between atoms: _338  and  _339
REMARK  139  A    between atoms: _338  and  _341
REMARK  140  A    between atoms: _341  and  _342
REMARK  141  A    between atoms: _345  and  _347
REMARK  142  A    between atoms: _347  and  _348
REMARK  143  A    between atoms: _347  and  _350
REMARK  144  A    between atoms: _350  and  _351
REMARK  145  A    between atoms: _354  and  _356
REMARK  146  A    between atoms: _356  and  _357
REMARK  147  A    between atoms: _356  and  _359
REMARK  148  A    between atoms: _362  and  _364
REMARK  149  A    between atoms: _364  and  _365
REMARK  150  A    between atoms: _364  and  _367
REMARK  151  A    between atoms: _367  and  _368
REMARK  152  A    between atoms: _368  and  _369
REMARK  153  A    between atoms: _369  and  _370
REMARK  154  A    between atoms: _370  and  _371
REMARK  155  A    between atoms: _375  and  _377
REMARK  156  A    between atoms: _377  and  _378
REMARK  157  A    between atoms: _377  and  _380
REMARK  158  A    between atoms: _380  and  _381
REMARK  159  A    between atoms: _381  and  _382
REMARK  160  A    between atoms: _384  and  _386
REMARK  161  A    between atoms: _386  and  _387
REMARK  162  A    between atoms: _386  and  _389
REMARK  163  A    between atoms: _389  and  _390
REMARK  164  A    between atoms: _393  and  _395
REMARK  165  A    between atoms: _395  and  _396
REMARK  166  A    between atoms: _398  and  _400
REMARK  167  A    between atoms: _400  and  _401
REMARK  168  A    between atoms: _403  and  _405
REMARK  169  A    between atoms: _405  and  _406
REMARK  170  A    between atoms: _405  and  _408
REMARK  171  A    between atoms: _408  and  _409
REMARK  172  A    between atoms: _412  and  _414
REMARK  173  A    between atoms: _414  and  _415
REMARK  174  A    between atoms: _417  and  _419
REMARK  175  A    between atoms: _419  and  _420
REMARK  176  A    between atoms: _422  and  _424
REMARK  177  A    between atoms: _424  and  _425
REMARK  178  A    between atoms: _424  and  _427
REMARK  179  A    between atoms: _427  and  _428
REMARK  180  A    between atoms: _434  and  _436
REMARK  181  A    between atoms: _436  and  _437
REMARK  182  A    between atoms: _436  and  _439
REMARK  183  A    between atoms: _439  and  _440
REMARK  184  A    between atoms: _443  and  _445
REMARK  185  A    between atoms: _445  and  _446
REMARK  186  A    between atoms: _445  and  _448
REMARK  187  A    between atoms: _448  and  _449
REMARK  188  A    between atoms: _452  and  _454
REMARK  189  A    between atoms: _454  and  _455
REMARK  190  A    between atoms: _454  and  _457
REMARK  191  A    between atoms: _457  and  _458
REMARK  192  A    between atoms: _462  and  _463
REMARK  193  A    between atoms: _468  and  _470
REMARK  194  A    between atoms: _470  and  _471
REMARK  195  A    between atoms: _470  and  _473
REMARK  196  A    between atoms: _476  and  _478
REMARK  197  A    between atoms: _478  and  _479
REMARK  198  A    between atoms: _478  and  _481
REMARK  199  A    between atoms: _481  and  _482
REMARK  200  A    between atoms: _487  and  _489
REMARK  201  A    between atoms: _489  and  _490
REMARK  202  A    between atoms: _489  and  _492
REMARK  203  A    between atoms: _492  and  _493
REMARK  204  A    between atoms: _496  and  _498
REMARK  205  A    between atoms: _498  and  _499
REMARK  206  A    between atoms: _498  and  _501
REMARK  207  A    between atoms: _501  and  _502
REMARK  208  A    between atoms: _505  and  _507
REMARK  209  A    between atoms: _507  and  _508
REMARK  210  A    between atoms: _510  and  _512
REMARK  211  A    between atoms: _512  and  _513
REMARK  212  A    between atoms: _512  and  _515
REMARK  213  A    between atoms: _515  and  _516
REMARK  214  A    between atoms: _516  and  _517
REMARK  215  A    between atoms: _517  and  _518
REMARK  216  A    between atoms: _527  and  _529
REMARK  217  A    between atoms: _529  and  _530
REMARK  218  A    between atoms: _529  and  _532
REMARK  219  A    between atoms: _532  and  _533
REMARK                            x       y       z     vdW  Elec       q    Type
REMARK                         _______ _______ _______ _____ _____    ______ ____
ROOT
ATOM      1  C   ILE A   5      11.558  27.518  18.160  0.00  0.00    +0.241 C 
ATOM      2  N   ILE A   6      11.829  26.656  19.136  0.00  0.00    -0.297 N 
ATOM      3  H   ILE A   6      12.323  25.769  18.912  0.00  0.00    +0.150 HD
ATOM      4  O   ILE A   5      10.845  28.513  18.337  0.00  0.00    -0.273 OA
ENDROOT
BRANCH   2   5
ATOM      5  CA  ILE A   6      11.445  26.934  20.511  0.00  0.00    +0.149 C 
BRANCH   5   6
ATOM      6  C   ILE A   6      12.625  27.600  21.213  0.00  0.00    +0.241 C 
ATOM      7  N   GLY A   7      12.451  28.866  21.562  0.00  0.00    -0.295 N 
ATOM      8  H   GLY A   7      11.520  29.305  21.413  0.00  0.00    +0.150 HD
ATOM      9  O   ILE A   6      13.671  26.980  21.426  0.00  0.00    -0.273 OA
BRANCH   7  10
ATOM     10  CA  GLY A   7      13.519  29.663  22.147  0.00  0.00    +0.176 C 
BRANCH  10  11
ATOM     11  C   GLY A   7      13.480  29.681  23.646  0.00  0.00    +0.243 C 
ATOM     12  O   GLY A   7      12.580  29.103  24.250  0.00  0.00    -0.273 OA
ATOM     13  N   ARG A   8      14.426  30.416  24.236  0.00  0.00    -0.297 N 
ATOM     14  H   ARG A   8      15.049  31.001  23.644  0.00  0.00    +0.150 HD
BRANCH  13  15
ATOM     15  CA  ARG A   8      14.616  30.427  25.679  0.00  0.00    +0.149 C 
BRANCH  15  16
ATOM     16  C   ARG A   8      13.415  30.924  26.467  0.00  0.00    +0.241 C 
ATOM     17  O   ARG A   8      13.197  30.469  27.583  0.00  0.00    -0.273 OA
ATOM     18  N   ASN A   9      12.621  31.822  25.890  0.00  0.00    -0.298 N 
ATOM     19  H   ASN A   9      12.862  32.189  24.947  0.00  0.00    +0.150 HD
BRANCH  18  20
ATOM     20  CA  ASN A   9      11.413  32.300  26.565  0.00  0.00    +0.146 C 
BRANCH  20  21
ATOM     21  C   ASN A   9      10.438  31.183  26.966  0.00  0.00    +0.227 C 
ATOM     22  O   ASN A   9       9.757  31.294  27.984  0.00  0.00    -0.286 OA
ENDBRANCH  20  21
BRANCH  20  23
ATOM     23  CB  ASN A   9      10.701  33.383  25.736  0.00  0.00    +0.112 C 
BRANCH  23  24
ATOM     24  CG  ASN A   9       9.989  32.835  24.507  0.00  0.00    +0.222 C 
ATOM     25  ND2 ASN A   9       8.698  33.201  24.357  0.00  0.00    -0.329 N 
ATOM     26 HD21 ASN A   9       8.240  33.799  25.074  0.00  0.00    +0.145 HD
ATOM     27 HD22 ASN A   9       8.161  32.885  23.524  0.00  0.00    +0.145 HD
ATOM     28  OD1 ASN A   9      10.583  32.125  23.684  0.00  0.00    -0.275 OA
ENDBRANCH  23  24
ENDBRANCH  20  23
ENDBRANCH  18  20
ENDBRANCH  15  16
BRANCH  15  29
ATOM     29  CB  ARG A   8      15.860  31.214  26.063  0.00  0.00    +0.033 C 
BRANCH  29  30
ATOM     30  CG  ARG A   8      17.143  30.556  25.577  0.00  0.00    +0.045 C 
BRANCH  30  31
ATOM     31  CD  ARG A   8      18.384  31.289  26.087  0.00  0.00    +0.174 C 
BRANCH  31  32
ATOM     32  NE  ARG A   8      18.427  32.684  25.643  0.00  0.00    -0.265 N 
ATOM     33  CZ  ARG A   8      18.069  33.743  26.371  0.00  0.00    +0.342 C 
ATOM     34  NH2 ARG A   8      17.606  33.629  27.606  0.00  0.00    -0.292 N 
ATOM     35 HH21 ARG A   8      17.337  34.479  28.141  0.00  0.00    +0.255 HD
ATOM     36 HH22 ARG A   8      17.511  32.689  28.041  0.00  0.00    +0.255 HD
ATOM     37  NH1 ARG A   8      18.169  34.949  25.839  0.00  0.00    -0.292 N 
ATOM     38 HH11 ARG A   8      17.894  35.786  26.392  0.00  0.00    +0.255 HD
ATOM     39 HH12 ARG A   8      18.522  35.061  24.867  0.00  0.00    +0.255 HD
ATOM     40  HE  ARG A   8      18.766  32.865  24.677  0.00  0.00    +0.259 HD
ENDBRANCH  31  32
ENDBRANCH  30  31
ENDBRANCH  29  30
ENDBRANCH  15  29
ENDBRANCH  13  15
ENDBRANCH  10  11
ENDBRANCH   7  10
ENDBRANCH   5   6
BRANCH   5  41
ATOM     41  CB  ILE A   6      11.016  25.657  21.269  0.00  0.00    +0.027 C 
ATOM     42  CG2 ILE A   6      10.574  26.012  22.686  0.00  0.00    +0.002 C 
BRANCH  41  43
ATOM     43  CG1 ILE A   6       9.901  24.931  20.508  0.00  0.00    +0.002 C 
ATOM     44  CD1 ILE A   6       8.658  25.774  20.227  0.00  0.00    +0.000 C 
ENDBRANCH  41  43
ENDBRANCH   5  41
ENDBRANCH   2   5
BRANCH   1  45
ATOM     45  CA  ILE A   5      12.184  27.237  16.780  0.00  0.00    +0.149 C 
BRANCH  45  47
ATOM     46  C   ASN A   4      11.062  25.926  15.038  0.00  0.00    +0.241 C 
ATOM     47  N   ILE A   5      11.165  27.041  15.757  0.00  0.00    -0.297 N 
ATOM     48  H   ILE A   5      10.486  27.809  15.580  0.00  0.00    +0.150 HD
ATOM     49  O   ASN A   4      11.781  24.919  15.219  0.00  0.00    -0.273 OA
BRANCH  46  50
ATOM     50  CA  ASN A   4      10.010  25.951  13.927  0.00  0.00    +0.158 C 
BRANCH  50  52
ATOM     51  C   VAL A   3      11.476  26.294  12.018  0.00  0.00    +0.241 C 
ATOM     52  N   ASN A   4      10.646  25.508  12.697  0.00  0.00    -0.297 N 
ATOM     53  H   ASN A   4      10.447  24.552  12.339  0.00  0.00    +0.150 HD
ATOM     54  O   VAL A   3      11.669  27.476  12.314  0.00  0.00    -0.273 OA
BRANCH  51  55
ATOM     55  CA  VAL A   3      12.176  25.663  10.812  0.00  0.00    +0.149 C 
BRANCH  55  57
ATOM     56  C   PRO A   2      12.312  26.380   8.489  0.00  0.00    +0.241 C 
ATOM     57  N   VAL A   3      12.353  26.675   9.781  0.00  0.00    -0.297 N 
ATOM     58  H   VAL A   3      12.517  27.661  10.067  0.00  0.00    +0.150 HD
ATOM     59  O   PRO A   2      12.080  25.244   8.062  0.00  0.00    -0.273 OA
BRANCH  56  66
ATOM     60  C   THR A   1      11.384  29.437   8.440  0.00  0.00    +0.244 C 
ATOM     61  O   THR A   1      10.305  28.889   8.209  0.00  0.00    -0.273 OA
ATOM     62  N   PRO A   2      12.557  28.879   8.098  0.00  0.00    -0.272 N 
ATOM     63  CD  PRO A   2      13.905  29.468   8.202  0.00  0.00    +0.094 C 
ATOM     64  CG  PRO A   2      14.816  28.371   7.726  0.00  0.00    +0.024 C 
ATOM     65  CB  PRO A   2      14.012  27.418   6.953  0.00  0.00    +0.031 C 
ATOM     66  CA  PRO A   2      12.584  27.532   7.512  0.00  0.00    +0.152 C 
BRANCH  60  67
ATOM     67  CA  THR A   1      11.425  30.812   9.125  0.00  0.00    +0.172 C 
BRANCH  67  68
ATOM     68  N   THR A   1      10.294  31.591   8.663  0.00  0.00    -0.236 NA
ATOM     69  H   THR A   1       9.458  31.683   9.274  0.00  0.00    +0.142 HD
ENDBRANCH  67  68
BRANCH  67  70
ATOM     70  CB  THR A   1      11.424  30.670  10.668  0.00  0.00    +0.135 C 
ATOM     71  CG2 THR A   1      10.080  30.049  11.204  0.00  0.00    +0.034 C 
BRANCH  70  72
ATOM     72  OG1 THR A   1      12.508  29.829  11.074  0.00  0.00    -0.383 OA
ATOM     73  HG1 THR A   1      12.403  28.935  10.661  0.00  0.00    +0.210 HD
ENDBRANCH  70  72
ENDBRANCH  67  70
ENDBRANCH  60  67
ENDBRANCH  56  66
ENDBRANCH  55  57
BRANCH  55  74
ATOM     74  CB  VAL A   3      13.547  25.047  11.203  0.00  0.00    +0.027 C 
ATOM     75  CG2 VAL A   3      13.375  23.855  12.140  0.00  0.00    +0.002 C 
ATOM     76  CG1 VAL A   3      14.470  26.099  11.823  0.00  0.00    +0.002 C 
ENDBRANCH  55  74
ENDBRANCH  51  55
ENDBRANCH  50  52
BRANCH  50  77
ATOM     77  CB  ASN A   4       8.827  25.065  14.294  0.00  0.00    +0.114 C 
BRANCH  77  78
ATOM     78  CG  ASN A   4       7.659  25.201  13.329  0.00  0.00    +0.222 C 
ATOM     79  OD1 ASN A   4       7.140  26.299  13.108  0.00  0.00    -0.275 OA
ATOM     80  ND2 ASN A   4       7.215  24.079  12.781  0.00  0.00    -0.329 N 
ATOM     81 HD21 ASN A   4       7.683  23.175  12.995  0.00  0.00    +0.145 HD
ATOM     82 HD22 ASN A   4       6.399  24.102  12.137  0.00  0.00    +0.145 HD
ENDBRANCH  77  78
ENDBRANCH  50  77
ENDBRANCH  46  50
ENDBRANCH  45  47
BRANCH  45  83
ATOM     83  CB  ILE A   5      13.090  28.429  16.397  0.00  0.00    +0.027 C 
ATOM     84  CG2 ILE A   5      14.068  28.756  17.544  0.00  0.00    +0.002 C 
BRANCH  83  85
ATOM     85  CG1 ILE A   5      13.842  28.116  15.100  0.00  0.00    +0.002 C 
ATOM     86  CD1 ILE A   5      14.440  29.308  14.418  0.00  0.00    +0.000 C 
ENDBRANCH  83  85
ENDBRANCH  45  83
ENDBRANCH   1  45
TORSDOF 32
REMARK  Name = ../refined-set-2016/2psu/2psu_pocket.pdb
REMARK  219 active torsions:
REMARK  status: ('A' for Active; 'I' for Inactive)
REMARK    1  A    between atoms: _1  and  _3
REMARK    2  A    between atoms: _3  and  _4
REMARK    3  A    between atoms: _3  and  _6
REMARK    4  A    between atoms: _6  and  _7
REMARK    5  A    between atoms: _7  and  _8
REMARK    6  A    between atoms: _8  and  _9
REMARK    7  A    between atoms: _18  and  _20
REMARK    8  A    between atoms: _20  and  _21
REMARK    9  A    between atoms: _20  and  _23
REMARK   10  A    between atoms: _23  and  _24
REMARK   11  A    between atoms: _27  and  _29
REMARK   12  A    between atoms: _29  and  _30
REMARK   13  A    between atoms: _29  and  _32
REMARK   14  A    between atoms: _32  and  _33
REMARK   15  A    between atoms: _36  and  _38
REMARK   16  A    between atoms: _38  and  _39
REMARK   17  A    between atoms: _38  and  _41
REMARK   18  A    between atoms: _41  and  _42
REMARK   19  A    between atoms: _45  and  _47
REMARK   20  A    between atoms: _47  and  _48
REMARK   21  A    between atoms: _47  and  _50
REMARK   22  A    between atoms: _50  and  _51
REMARK   23  A    between atoms: _54  and  _56
REMARK   24  A    between atoms: _56  and  _57
REMARK   25  A    between atoms: _59  and  _61
REMARK   26  A    between atoms: _61  and  _62
REMARK   27  A    between atoms: _65  and  _67
REMARK   28  A    between atoms: _67  and  _68
REMARK   29  A    between atoms: _67  and  _70
REMARK   30  A    between atoms: _70  and  _71
REMARK   31  A    between atoms: _74  and  _76
REMARK   32  A    between atoms: _76  and  _77
REMARK   33  A    between atoms: _76  and  _79
REMARK   34  A    between atoms: _79  and  _80
REMARK   35  A    between atoms: _83  and  _85
REMARK   36  A    between atoms: _85  and  _86
REMARK   37  A    between atoms: _85  and  _88
REMARK   38  A    between atoms: _88  and  _89
REMARK   39  A    between atoms: _92  and  _94
REMARK   40  A    between atoms: _94  and  _95
REMARK   41  A    between atoms: _94  and  _97
REMARK   42  A    between atoms: _100  and  _102
REMARK   43  A    between atoms: _102  and  _103
REMARK   44  A    between atoms: _102  and  _105
REMARK   45  A    between atoms: _105  and  _106
REMARK   46  A    between atoms: _106  and  _107
REMARK   47  A    between atoms: _109  and  _111
REMARK   48  A    between atoms: _111  and  _112
REMARK   49  A    between atoms: _111  and  _114
REMARK   50  A    between atoms: _114  and  _115
REMARK   51  A    between atoms: _118  and  _120
REMARK   52  A    between atoms: _120  and  _121
REMARK   53  A    between atoms: _123  and  _125
REMARK   54  A    between atoms: _125  and  _126
REMARK   55  A    between atoms: _128  and  _130
REMARK   56  A    between atoms: _130  and  _131
REMARK   57  A    between atoms: _130  and  _133
REMARK   58  A    between atoms: _133  and  _134
REMARK   59  A    between atoms: _137  and  _139
REMARK   60  A    between atoms: _139  and  _140
REMARK   61  A    between atoms: _142  and  _144
REMARK   62  A    between atoms: _144  and  _145
REMARK   63  A    between atoms: _147  and  _149
REMARK   64  A    between atoms: _149  and  _150
REMARK   65  A    between atoms: _149  and  _152
REMARK   66  A    between atoms: _152  and  _153
REMARK   67  A    between atoms: _159  and  _161
REMARK   68  A    between atoms: _161  and  _162
REMARK   69  A    between atoms: _161  and  _164
REMARK   70  A    between atoms: _164  and  _165
REMARK   71  A    between atoms: _168  and  _170
REMARK   72  A    between atoms: _170  and  _171
REMARK   73  A    between atoms: _170  and  _173
REMARK   74  A    between atoms: _173  and  _174
REMARK   75  A    between atoms: _177  and  _179
REMARK   76  A    between atoms: _179  and  _180
REMARK   77  A    between atoms: _179  and  _182
REMARK   78  A    between atoms: _182  and  _183
REMARK   79  A    between atoms: _187  and  _188
REMARK   80  A    between atoms: _193  and  _195
REMARK   81  A    between atoms: _195  and  _196
REMARK   82  A    between atoms: _195  and  _198
REMARK   83  A    between atoms: _201  and  _203
REMARK   84  A    between atoms: _203  and  _204
REMARK   85  A    between atoms: _203  and  _206
REMARK   86  A    between atoms: _206  and  _207
REMARK   87  A    between atoms: _212  and  _214
REMARK   88  A    between atoms: _214  and  _215
REMARK   89  A    between atoms: _214  and  _217
REMARK   90  A    between atoms: _217  and  _218
REMARK   91  A    between atoms: _221  and  _223
REMARK   92  A    between atoms: _223  and  _224
REMARK   93  A    between atoms: _223  and  _226
REMARK   94  A    between atoms: _226  and  _227
REMARK   95  A    between atoms: _230  and  _232
REMARK   96  A    between atoms: _232  and  _233
REMARK   97  A    between atoms: _235  and  _237
REMARK   98  A    between atoms: _237  and  _238
REMARK   99  A    between atoms: _237  and  _240
REMARK  100  A    between atoms: _240  and  _241
REMARK  101  A    between atoms: _241  and  _242
REMARK  102  A    between atoms: _242  and  _243
REMARK  103  A    between atoms: _252  and  _254
REMARK  104  A    between atoms: _254  and  _255
REMARK  105  A    between atoms: _254  and  _257
REMARK  106  A    between atoms: _257  and  _258
REMARK  107  A    between atoms: _263  and  _265
REMARK  108  A    between atoms: _265  and  _266
REMARK  109  A    between atoms: _265  and  _268
REMARK  110  A    between atoms: _268  and  _269
REMARK  111  A    between atoms: _269  and  _270
REMARK  112  A    between atoms: _270  and  _271
REMARK  113  A    between atoms: _280  and  _282
REMARK  114  A    between atoms: _282  and  _283
REMARK  115  A    between atoms: _282  and  _285
REMARK  116  A    between atoms: _285  and  _286
REMARK  117  A    between atoms: _289  and  _291
REMARK  118  A    between atoms: _291  and  _292
REMARK  119  A    between atoms: _291  and  _294
REMARK  120  A    between atoms: _294  and  _295
REMARK  121  A    between atoms: _298  and  _300
REMARK  122  A    between atoms: _300  and  _301
REMARK  123  A    between atoms: _300  and  _303
REMARK  124  A    between atoms: _303  and  _304
REMARK  125  A    between atoms: _307  and  _309
REMARK  126  A    between atoms: _309  and  _310
REMARK  127  A    between atoms: _309  and  _312
REMARK  128  A    between atoms: _312  and  _313
REMARK  129  A    between atoms: _316  and  _318
REMARK  130  A    between atoms: _318  and  _319
REMARK  131  A    between atoms: _321  and  _323
REMARK  132  A    between atoms: _323  and  _324
REMARK  133  A    between atoms: _327  and  _329
REMARK  134  A    between atoms: _329  and  _330
REMARK  135  A    between atoms: _329  and  _332
REMARK  136  A    between atoms: _332  and  _333
REMARK  137  A    between atoms: _336  and  _338
REMARK  138  A    between atoms: _338  and  _339
REMARK  139  A    between atoms: _338  and  _341
REMARK  140  A    between atoms: _341  and  _342
REMARK  141  A    between atoms: _345  and  _347
REMARK  142  A    between atoms: _347  and  _348
REMARK  143  A    between atoms: _347  and  _350
REMARK  144  A    between atoms: _350  and  _351
REMARK  145  A    between atoms: _354  and  _356
REMARK  146  A    between atoms: _356  and  _357
REMARK  147  A    between atoms: _356  and  _359
REMARK  148  A    between atoms: _362  and  _364
REMARK  149  A    between atoms: _364  and  _365
REMARK  150  A    between atoms: _364  and  _367
REMARK  151  A    between atoms: _367  and  _368
REMARK  152  A    between atoms: _368  and  _369
REMARK  153  A    between atoms: _369  and  _370
REMARK  154  A    between atoms: _370  and  _371
REMARK  155  A    between atoms: _375  and  _377
REMARK  156  A    between atoms: _377  and  _378
REMARK  157  A    between atoms: _377  and  _380
REMARK  158  A    between atoms: _380  and  _381
REMARK  159  A    between atoms: _381  and  _382
REMARK  160  A    between atoms: _384  and  _386
REMARK  161  A    between atoms: _386  and  _387
REMARK  162  A    between atoms: _386  and  _389
REMARK  163  A    between atoms: _389  and  _390
REMARK  164  A    between atoms: _393  and  _395
REMARK  165  A    between atoms: _395  and  _396
REMARK  166  A    between atoms: _398  and  _400
REMARK  167  A    between atoms: _400  and  _401
REMARK  168  A    between atoms: _403  and  _405
REMARK  169  A    between atoms: _405  and  _406
REMARK  170  A    between atoms: _405  and  _408
REMARK  171  A    between atoms: _408  and  _409
REMARK  172  A    between atoms: _412  and  _414
REMARK  173  A    between atoms: _414  and  _415
REMARK  174  A    between atoms: _417  and  _419
REMARK  175  A    between atoms: _419  and  _420
REMARK  176  A    between atoms: _422  and  _424
REMARK  177  A    between atoms: _424  and  _425
REMARK  178  A    between atoms: _424  and  _427
REMARK  179  A    between atoms: _427  and  _428
REMARK  180  A    between atoms: _434  and  _436
REMARK  181  A    between atoms: _436  and  _437
REMARK  182  A    between atoms: _436  and  _439
REMARK  183  A    between atoms: _439  and  _440
REMARK  184  A    between atoms: _443  and  _445
REMARK  185  A    between atoms: _445  and  _446
REMARK  186  A    between atoms: _445  and  _448
REMARK  187  A    between atoms: _448  and  _449
REMARK  188  A    between atoms: _452  and  _454
REMARK  189  A    between atoms: _454  and  _455
REMARK  190  A    between atoms: _454  and  _457
REMARK  191  A    between atoms: _457  and  _458
REMARK  192  A    between atoms: _462  and  _463
REMARK  193  A    between atoms: _468  and  _470
REMARK  194  A    between atoms: _470  and  _471
REMARK  195  A    between atoms: _470  and  _473
REMARK  196  A    between atoms: _476  and  _478
REMARK  197  A    between atoms: _478  and  _479
REMARK  198  A    between atoms: _478  and  _481
REMARK  199  A    between atoms: _481  and  _482
REMARK  200  A    between atoms: _487  and  _489
REMARK  201  A    between atoms: _489  and  _490
REMARK  202  A    between atoms: _489  and  _492
REMARK  203  A    between atoms: _492  and  _493
REMARK  204  A    between atoms: _496  and  _498
REMARK  205  A    between atoms: _498  and  _499
REMARK  206  A    between atoms: _498  and  _501
REMARK  207  A    between atoms: _501  and  _502
REMARK  208  A    between atoms: _505  and  _507
REMARK  209  A    between atoms: _507  and  _508
REMARK  210  A    between atoms: _510  and  _512
REMARK  211  A    between atoms: _512  and  _513
REMARK  212  A    between atoms: _512  and  _515
REMARK  213  A    between atoms: _515  and  _516
REMARK  214  A    between atoms: _516  and  _517
REMARK  215  A    between atoms: _517  and  _518
REMARK  216  A    between atoms: _527  and  _529
REMARK  217  A    between atoms: _529  and  _530
REMARK  218  A    between atoms: _529  and  _532
REMARK  219  A    between atoms: _532  and  _533
REMARK                            x       y       z     vdW  Elec       q    Type
REMARK                         _______ _______ _______ _____ _____    ______ ____
ROOT
ATOM      1  O   HOH     1      19.621  22.958  13.312  0.00  0.00    +0.000 OA
ENDROOT
TORSDOF 0
REMARK  Name = ../refined-set-2016/2psu/2psu_pocket.pdb
REMARK  219 active torsions:
REMARK  status: ('A' for Active; 'I' for Inactive)
REMARK    1  A    between atoms: _1  and  _3
REMARK    2  A    between atoms: _3  and  _4
REMARK    3  A    between atoms: _3  and  _6
REMARK    4  A    between atoms: _6  and  _7
REMARK    5  A    between atoms: _7  and  _8
REMARK    6  A    between atoms: _8  and  _9
REMARK    7  A    between atoms: _18  and  _20
REMARK    8  A    between atoms: _20  and  _21
REMARK    9  A    between atoms: _20  and  _23
REMARK   10  A    between atoms: _23  and  _24
REMARK   11  A    between atoms: _27  and  _29
REMARK   12  A    between atoms: _29  and  _30
REMARK   13  A    between atoms: _29  and  _32
REMARK   14  A    between atoms: _32  and  _33
REMARK   15  A    between atoms: _36  and  _38
REMARK   16  A    between atoms: _38  and  _39
REMARK   17  A    between atoms: _38  and  _41
REMARK   18  A    between atoms: _41  and  _42
REMARK   19  A    between atoms: _45  and  _47
REMARK   20  A    between atoms: _47  and  _48
REMARK   21  A    between atoms: _47  and  _50
REMARK   22  A    between atoms: _50  and  _51
REMARK   23  A    between atoms: _54  and  _56
REMARK   24  A    between atoms: _56  and  _57
REMARK   25  A    between atoms: _59  and  _61
REMARK   26  A    between atoms: _61  and  _62
REMARK   27  A    between atoms: _65  and  _67
REMARK   28  A    between atoms: _67  and  _68
REMARK   29  A    between atoms: _67  and  _70
REMARK   30  A    between atoms: _70  and  _71
REMARK   31  A    between atoms: _74  and  _76
REMARK   32  A    between atoms: _76  and  _77
REMARK   33  A    between atoms: _76  and  _79
REMARK   34  A    between atoms: _79  and  _80
REMARK   35  A    between atoms: _83  and  _85
REMARK   36  A    between atoms: _85  and  _86
REMARK   37  A    between atoms: _85  and  _88
REMARK   38  A    between atoms: _88  and  _89
REMARK   39  A    between atoms: _92  and  _94
REMARK   40  A    between atoms: _94  and  _95
REMARK   41  A    between atoms: _94  and  _97
REMARK   42  A    between atoms: _100  and  _102
REMARK   43  A    between atoms: _102  and  _103
REMARK   44  A    between atoms: _102  and  _105
REMARK   45  A    between atoms: _105  and  _106
REMARK   46  A    between atoms: _106  and  _107
REMARK   47  A    between atoms: _109  and  _111
REMARK   48  A    between atoms: _111  and  _112
REMARK   49  A    between atoms: _111  and  _114
REMARK   50  A    between atoms: _114  and  _115
REMARK   51  A    between atoms: _118  and  _120
REMARK   52  A    between atoms: _120  and  _121
REMARK   53  A    between atoms: _123  and  _125
REMARK   54  A    between atoms: _125  and  _126
REMARK   55  A    between atoms: _128  and  _130
REMARK   56  A    between atoms: _130  and  _131
REMARK   57  A    between atoms: _130  and  _133
REMARK   58  A    between atoms: _133  and  _134
REMARK   59  A    between atoms: _137  and  _139
REMARK   60  A    between atoms: _139  and  _140
REMARK   61  A    between atoms: _142  and  _144
REMARK   62  A    between atoms: _144  and  _145
REMARK   63  A    between atoms: _147  and  _149
REMARK   64  A    between atoms: _149  and  _150
REMARK   65  A    between atoms: _149  and  _152
REMARK   66  A    between atoms: _152  and  _153
REMARK   67  A    between atoms: _159  and  _161
REMARK   68  A    between atoms: _161  and  _162
REMARK   69  A    between atoms: _161  and  _164
REMARK   70  A    between atoms: _164  and  _165
REMARK   71  A    between atoms: _168  and  _170
REMARK   72  A    between atoms: _170  and  _171
REMARK   73  A    between atoms: _170  and  _173
REMARK   74  A    between atoms: _173  and  _174
REMARK   75  A    between atoms: _177  and  _179
REMARK   76  A    between atoms: _179  and  _180
REMARK   77  A    between atoms: _179  and  _182
REMARK   78  A    between atoms: _182  and  _183
REMARK   79  A    between atoms: _187  and  _188
REMARK   80  A    between atoms: _193  and  _195
REMARK   81  A    between atoms: _195  and  _196
REMARK   82  A    between atoms: _195  and  _198
REMARK   83  A    between atoms: _201  and  _203
REMARK   84  A    between atoms: _203  and  _204
REMARK   85  A    between atoms: _203  and  _206
REMARK   86  A    between atoms: _206  and  _207
REMARK   87  A    between atoms: _212  and  _214
REMARK   88  A    between atoms: _214  and  _215
REMARK   89  A    between atoms: _214  and  _217
REMARK   90  A    between atoms: _217  and  _218
REMARK   91  A    between atoms: _221  and  _223
REMARK   92  A    between atoms: _223  and  _224
REMARK   93  A    between atoms: _223  and  _226
REMARK   94  A    between atoms: _226  and  _227
REMARK   95  A    between atoms: _230  and  _232
REMARK   96  A    between atoms: _232  and  _233
REMARK   97  A    between atoms: _235  and  _237
REMARK   98  A    between atoms: _237  and  _238
REMARK   99  A    between atoms: _237  and  _240
REMARK  100  A    between atoms: _240  and  _241
REMARK  101  A    between atoms: _241  and  _242
REMARK  102  A    between atoms: _242  and  _243
REMARK  103  A    between atoms: _252  and  _254
REMARK  104  A    between atoms: _254  and  _255
REMARK  105  A    between atoms: _254  and  _257
REMARK  106  A    between atoms: _257  and  _258
REMARK  107  A    between atoms: _263  and  _265
REMARK  108  A    between atoms: _265  and  _266
REMARK  109  A    between atoms: _265  and  _268
REMARK  110  A    between atoms: _268  and  _269
REMARK  111  A    between atoms: _269  and  _270
REMARK  112  A    between atoms: _270  and  _271
REMARK  113  A    between atoms: _280  and  _282
REMARK  114  A    between atoms: _282  and  _283
REMARK  115  A    between atoms: _282  and  _285
REMARK  116  A    between atoms: _285  and  _286
REMARK  117  A    between atoms: _289  and  _291
REMARK  118  A    between atoms: _291  and  _292
REMARK  119  A    between atoms: _291  and  _294
REMARK  120  A    between atoms: _294  and  _295
REMARK  121  A    between atoms: _298  and  _300
REMARK  122  A    between atoms: _300  and  _301
REMARK  123  A    between atoms: _300  and  _303
REMARK  124  A    between atoms: _303  and  _304
REMARK  125  A    between atoms: _307  and  _309
REMARK  126  A    between atoms: _309  and  _310
REMARK  127  A    between atoms: _309  and  _312
REMARK  128  A    between atoms: _312  and  _313
REMARK  129  A    between atoms: _316  and  _318
REMARK  130  A    between atoms: _318  and  _319
REMARK  131  A    between atoms: _321  and  _323
REMARK  132  A    between atoms: _323  and  _324
REMARK  133  A    between atoms: _327  and  _329
REMARK  134  A    between atoms: _329  and  _330
REMARK  135  A    between atoms: _329  and  _332
REMARK  136  A    between atoms: _332  and  _333
REMARK  137  A    between atoms: _336  and  _338
REMARK  138  A    between atoms: _338  and  _339
REMARK  139  A    between atoms: _338  and  _341
REMARK  140  A    between atoms: _341  and  _342
REMARK  141  A    between atoms: _345  and  _347
REMARK  142  A    between atoms: _347  and  _348
REMARK  143  A    between atoms: _347  and  _350
REMARK  144  A    between atoms: _350  and  _351
REMARK  145  A    between atoms: _354  and  _356
REMARK  146  A    between atoms: _356  and  _357
REMARK  147  A    between atoms: _356  and  _359
REMARK  148  A    between atoms: _362  and  _364
REMARK  149  A    between atoms: _364  and  _365
REMARK  150  A    between atoms: _364  and  _367
REMARK  151  A    between atoms: _367  and  _368
REMARK  152  A    between atoms: _368  and  _369
REMARK  153  A    between atoms: _369  and  _370
REMARK  154  A    between atoms: _370  and  _371
REMARK  155  A    between atoms: _375  and  _377
REMARK  156  A    between atoms: _377  and  _378
REMARK  157  A    between atoms: _377  and  _380
REMARK  158  A    between atoms: _380  and  _381
REMARK  159  A    between atoms: _381  and  _382
REMARK  160  A    between atoms: _384  and  _386
REMARK  161  A    between atoms: _386  and  _387
REMARK  162  A    between atoms: _386  and  _389
REMARK  163  A    between atoms: _389  and  _390
REMARK  164  A    between atoms: _393  and  _395
REMARK  165  A    between atoms: _395  and  _396
REMARK  166  A    between atoms: _398  and  _400
REMARK  167  A    between atoms: _400  and  _401
REMARK  168  A    between atoms: _403  and  _405
REMARK  169  A    between atoms: _405  and  _406
REMARK  170  A    between atoms: _405  and  _408
REMARK  171  A    between atoms: _408  and  _409
REMARK  172  A    between atoms: _412  and  _414
REMARK  173  A    between atoms: _414  and  _415
REMARK  174  A    between atoms: _417  and  _419
REMARK  175  A    between atoms: _419  and  _420
REMARK  176  A    between atoms: _422  and  _424
REMARK  177  A    between atoms: _424  and  _425
REMARK  178  A    between atoms: _424  and  _427
REMARK  179  A    between atoms: _427  and  _428
REMARK  180  A    between atoms: _434  and  _436
REMARK  181  A    between atoms: _436  and  _437
REMARK  182  A    between atoms: _436  and  _439
REMARK  183  A    between atoms: _439  and  _440
REMARK  184  A    between atoms: _443  and  _445
REMARK  185  A    between atoms: _445  and  _446
REMARK  186  A    between atoms: _445  and  _448
REMARK  187  A    between atoms: _448  and  _449
REMARK  188  A    between atoms: _452  and  _454
REMARK  189  A    between atoms: _454  and  _455
REMARK  190  A    between atoms: _454  and  _457
REMARK  191  A    between atoms: _457  and  _458
REMARK  192  A    between atoms: _462  and  _463
REMARK  193  A    between atoms: _468  and  _470
REMARK  194  A    between atoms: _470  and  _471
REMARK  195  A    between atoms: _470  and  _473
REMARK  196  A    between atoms: _476  and  _478
REMARK  197  A    between atoms: _478  and  _479
REMARK  198  A    between atoms: _478  and  _481
REMARK  199  A    between atoms: _481  and  _482
REMARK  200  A    between atoms: _487  and  _489
REMARK  201  A    between atoms: _489  and  _490
REMARK  202  A    between atoms: _489  and  _492
REMARK  203  A    between atoms: _492  and  _493
REMARK  204  A    between atoms: _496  and  _498
REMARK  205  A    between atoms: _498  and  _499
REMARK  206  A    between atoms: _498  and  _501
REMARK  207  A    between atoms: _501  and  _502
REMARK  208  A    between atoms: _505  and  _507
REMARK  209  A    between atoms: _507  and  _508
REMARK  210  A    between atoms: _510  and  _512
REMARK  211  A    between atoms: _512  and  _513
REMARK  212  A    between atoms: _512  and  _515
REMARK  213  A    between atoms: _515  and  _516
REMARK  214  A    between atoms: _516  and  _517
REMARK  215  A    between atoms: _517  and  _518
REMARK  216  A    between atoms: _527  and  _529
REMARK  217  A    between atoms: _529  and  _530
REMARK  218  A    between atoms: _529  and  _532
REMARK  219  A    between atoms: _532  and  _533
REMARK                            x       y       z     vdW  Elec       q    Type
REMARK                         _______ _______ _______ _____ _____    ______ ____
ROOT
ATOM      1  O   HOH     1      20.149  21.585  15.601  0.00  0.00    +0.000 OA
ENDROOT
TORSDOF 0
REMARK  Name = ../refined-set-2016/2psu/2psu_pocket.pdb
REMARK  219 active torsions:
REMARK  status: ('A' for Active; 'I' for Inactive)
REMARK    1  A    between atoms: _1  and  _3
REMARK    2  A    between atoms: _3  and  _4
REMARK    3  A    between atoms: _3  and  _6
REMARK    4  A    between atoms: _6  and  _7
REMARK    5  A    between atoms: _7  and  _8
REMARK    6  A    between atoms: _8  and  _9
REMARK    7  A    between atoms: _18  and  _20
REMARK    8  A    between atoms: _20  and  _21
REMARK    9  A    between atoms: _20  and  _23
REMARK   10  A    between atoms: _23  and  _24
REMARK   11  A    between atoms: _27  and  _29
REMARK   12  A    between atoms: _29  and  _30
REMARK   13  A    between atoms: _29  and  _32
REMARK   14  A    between atoms: _32  and  _33
REMARK   15  A    between atoms: _36  and  _38
REMARK   16  A    between atoms: _38  and  _39
REMARK   17  A    between atoms: _38  and  _41
REMARK   18  A    between atoms: _41  and  _42
REMARK   19  A    between atoms: _45  and  _47
REMARK   20  A    between atoms: _47  and  _48
REMARK   21  A    between atoms: _47  and  _50
REMARK   22  A    between atoms: _50  and  _51
REMARK   23  A    between atoms: _54  and  _56
REMARK   24  A    between atoms: _56  and  _57
REMARK   25  A    between atoms: _59  and  _61
REMARK   26  A    between atoms: _61  and  _62
REMARK   27  A    between atoms: _65  and  _67
REMARK   28  A    between atoms: _67  and  _68
REMARK   29  A    between atoms: _67  and  _70
REMARK   30  A    between atoms: _70  and  _71
REMARK   31  A    between atoms: _74  and  _76
REMARK   32  A    between atoms: _76  and  _77
REMARK   33  A    between atoms: _76  and  _79
REMARK   34  A    between atoms: _79  and  _80
REMARK   35  A    between atoms: _83  and  _85
REMARK   36  A    between atoms: _85  and  _86
REMARK   37  A    between atoms: _85  and  _88
REMARK   38  A    between atoms: _88  and  _89
REMARK   39  A    between atoms: _92  and  _94
REMARK   40  A    between atoms: _94  and  _95
REMARK   41  A    between atoms: _94  and  _97
REMARK   42  A    between atoms: _100  and  _102
REMARK   43  A    between atoms: _102  and  _103
REMARK   44  A    between atoms: _102  and  _105
REMARK   45  A    between atoms: _105  and  _106
REMARK   46  A    between atoms: _106  and  _107
REMARK   47  A    between atoms: _109  and  _111
REMARK   48  A    between atoms: _111  and  _112
REMARK   49  A    between atoms: _111  and  _114
REMARK   50  A    between atoms: _114  and  _115
REMARK   51  A    between atoms: _118  and  _120
REMARK   52  A    between atoms: _120  and  _121
REMARK   53  A    between atoms: _123  and  _125
REMARK   54  A    between atoms: _125  and  _126
REMARK   55  A    between atoms: _128  and  _130
REMARK   56  A    between atoms: _130  and  _131
REMARK   57  A    between atoms: _130  and  _133
REMARK   58  A    between atoms: _133  and  _134
REMARK   59  A    between atoms: _137  and  _139
REMARK   60  A    between atoms: _139  and  _140
REMARK   61  A    between atoms: _142  and  _144
REMARK   62  A    between atoms: _144  and  _145
REMARK   63  A    between atoms: _147  and  _149
REMARK   64  A    between atoms: _149  and  _150
REMARK   65  A    between atoms: _149  and  _152
REMARK   66  A    between atoms: _152  and  _153
REMARK   67  A    between atoms: _159  and  _161
REMARK   68  A    between atoms: _161  and  _162
REMARK   69  A    between atoms: _161  and  _164
REMARK   70  A    between atoms: _164  and  _165
REMARK   71  A    between atoms: _168  and  _170
REMARK   72  A    between atoms: _170  and  _171
REMARK   73  A    between atoms: _170  and  _173
REMARK   74  A    between atoms: _173  and  _174
REMARK   75  A    between atoms: _177  and  _179
REMARK   76  A    between atoms: _179  and  _180
REMARK   77  A    between atoms: _179  and  _182
REMARK   78  A    between atoms: _182  and  _183
REMARK   79  A    between atoms: _187  and  _188
REMARK   80  A    between atoms: _193  and  _195
REMARK   81  A    between atoms: _195  and  _196
REMARK   82  A    between atoms: _195  and  _198
REMARK   83  A    between atoms: _201  and  _203
REMARK   84  A    between atoms: _203  and  _204
REMARK   85  A    between atoms: _203  and  _206
REMARK   86  A    between atoms: _206  and  _207
REMARK   87  A    between atoms: _212  and  _214
REMARK   88  A    between atoms: _214  and  _215
REMARK   89  A    between atoms: _214  and  _217
REMARK   90  A    between atoms: _217  and  _218
REMARK   91  A    between atoms: _221  and  _223
REMARK   92  A    between atoms: _223  and  _224
REMARK   93  A    between atoms: _223  and  _226
REMARK   94  A    between atoms: _226  and  _227
REMARK   95  A    between atoms: _230  and  _232
REMARK   96  A    between atoms: _232  and  _233
REMARK   97  A    between atoms: _235  and  _237
REMARK   98  A    between atoms: _237  and  _238
REMARK   99  A    between atoms: _237  and  _240
REMARK  100  A    between atoms: _240  and  _241
REMARK  101  A    between atoms: _241  and  _242
REMARK  102  A    between atoms: _242  and  _243
REMARK  103  A    between atoms: _252  and  _254
REMARK  104  A    between atoms: _254  and  _255
REMARK  105  A    between atoms: _254  and  _257
REMARK  106  A    between atoms: _257  and  _258
REMARK  107  A    between atoms: _263  and  _265
REMARK  108  A    between atoms: _265  and  _266
REMARK  109  A    between atoms: _265  and  _268
REMARK  110  A    between atoms: _268  and  _269
REMARK  111  A    between atoms: _269  and  _270
REMARK  112  A    between atoms: _270  and  _271
REMARK  113  A    between atoms: _280  and  _282
REMARK  114  A    between atoms: _282  and  _283
REMARK  115  A    between atoms: _282  and  _285
REMARK  116  A    between atoms: _285  and  _286
REMARK  117  A    between atoms: _289  and  _291
REMARK  118  A    between atoms: _291  and  _292
REMARK  119  A    between atoms: _291  and  _294
REMARK  120  A    between atoms: _294  and  _295
REMARK  121  A    between atoms: _298  and  _300
REMARK  122  A    between atoms: _300  and  _301
REMARK  123  A    between atoms: _300  and  _303
REMARK  124  A    between atoms: _303  and  _304
REMARK  125  A    between atoms: _307  and  _309
REMARK  126  A    between atoms: _309  and  _310
REMARK  127  A    between atoms: _309  and  _312
REMARK  128  A    between atoms: _312  and  _313
REMARK  129  A    between atoms: _316  and  _318
REMARK  130  A    between atoms: _318  and  _319
REMARK  131  A    between atoms: _321  and  _323
REMARK  132  A    between atoms: _323  and  _324
REMARK  133  A    between atoms: _327  and  _329
REMARK  134  A    between atoms: _329  and  _330
REMARK  135  A    between atoms: _329  and  _332
REMARK  136  A    between atoms: _332  and  _333
REMARK  137  A    between atoms: _336  and  _338
REMARK  138  A    between atoms: _338  and  _339
REMARK  139  A    between atoms: _338  and  _341
REMARK  140  A    between atoms: _341  and  _342
REMARK  141  A    between atoms: _345  and  _347
REMARK  142  A    between atoms: _347  and  _348
REMARK  143  A    between atoms: _347  and  _350
REMARK  144  A    between atoms: _350  and  _351
REMARK  145  A    between atoms: _354  and  _356
REMARK  146  A    between atoms: _356  and  _357
REMARK  147  A    between atoms: _356  and  _359
REMARK  148  A    between atoms: _362  and  _364
REMARK  149  A    between atoms: _364  and  _365
REMARK  150  A    between atoms: _364  and  _367
REMARK  151  A    between atoms: _367  and  _368
REMARK  152  A    between atoms: _368  and  _369
REMARK  153  A    between atoms: _369  and  _370
REMARK  154  A    between atoms: _370  and  _371
REMARK  155  A    between atoms: _375  and  _377
REMARK  156  A    between atoms: _377  and  _378
REMARK  157  A    between atoms: _377  and  _380
REMARK  158  A    between atoms: _380  and  _381
REMARK  159  A    between atoms: _381  and  _382
REMARK  160  A    between atoms: _384  and  _386
REMARK  161  A    between atoms: _386  and  _387
REMARK  162  A    between atoms: _386  and  _389
REMARK  163  A    between atoms: _389  and  _390
REMARK  164  A    between atoms: _393  and  _395
REMARK  165  A    between atoms: _395  and  _396
REMARK  166  A    between atoms: _398  and  _400
REMARK  167  A    between atoms: _400  and  _401
REMARK  168  A    between atoms: _403  and  _405
REMARK  169  A    between atoms: _405  and  _406
REMARK  170  A    between atoms: _405  and  _408
REMARK  171  A    between atoms: _408  and  _409
REMARK  172  A    between atoms: _412  and  _414
REMARK  173  A    between atoms: _414  and  _415
REMARK  174  A    between atoms: _417  and  _419
REMARK  175  A    between atoms: _419  and  _420
REMARK  176  A    between atoms: _422  and  _424
REMARK  177  A    between atoms: _424  and  _425
REMARK  178  A    between atoms: _424  and  _427
REMARK  179  A    between atoms: _427  and  _428
REMARK  180  A    between atoms: _434  and  _436
REMARK  181  A    between atoms: _436  and  _437
REMARK  182  A    between atoms: _436  and  _439
REMARK  183  A    between atoms: _439  and  _440
REMARK  184  A    between atoms: _443  and  _445
REMARK  185  A    between atoms: _445  and  _446
REMARK  186  A    between atoms: _445  and  _448
REMARK  187  A    between atoms: _448  and  _449
REMARK  188  A    between atoms: _452  and  _454
REMARK  189  A    between atoms: _454  and  _455
REMARK  190  A    between atoms: _454  and  _457
REMARK  191  A    between atoms: _457  and  _458
REMARK  192  A    between atoms: _462  and  _463
REMARK  193  A    between atoms: _468  and  _470
REMARK  194  A    between atoms: _470  and  _471
REMARK  195  A    between atoms: _470  and  _473
REMARK  196  A    between atoms: _476  and  _478
REMARK  197  A    between atoms: _478  and  _479
REMARK  198  A    between atoms: _478  and  _481
REMARK  199  A    between atoms: _481  and  _482
REMARK  200  A    between atoms: _487  and  _489
REMARK  201  A    between atoms: _489  and  _490
REMARK  202  A    between atoms: _489  and  _492
REMARK  203  A    between atoms: _492  and  _493
REMARK  204  A    between atoms: _496  and  _498
REMARK  205  A    between atoms: _498  and  _499
REMARK  206  A    between atoms: _498  and  _501
REMARK  207  A    between atoms: _501  and  _502
REMARK  208  A    between atoms: _505  and  _507
REMARK  209  A    between atoms: _507  and  _508
REMARK  210  A    between atoms: _510  and  _512
REMARK  211  A    between atoms: _512  and  _513
REMARK  212  A    between atoms: _512  and  _515
REMARK  213  A    between atoms: _515  and  _516
REMARK  214  A    between atoms: _516  and  _517
REMARK  215  A    between atoms: _517  and  _518
REMARK  216  A    between atoms: _527  and  _529
REMARK  217  A    between atoms: _529  and  _530
REMARK  218  A    between atoms: _529  and  _532
REMARK  219  A    between atoms: _532  and  _533
REMARK                            x       y       z     vdW  Elec       q    Type
REMARK                         _______ _______ _______ _____ _____    ______ ____
ROOT
ATOM      1  O   HOH     1      20.173  32.076  12.009  0.00  0.00    +0.000 OA
ENDROOT
TORSDOF 0
REMARK  Name = ../refined-set-2016/2psu/2psu_pocket.pdb
REMARK  219 active torsions:
REMARK  status: ('A' for Active; 'I' for Inactive)
REMARK    1  A    between atoms: _1  and  _3
REMARK    2  A    between atoms: _3  and  _4
REMARK    3  A    between atoms: _3  and  _6
REMARK    4  A    between atoms: _6  and  _7
REMARK    5  A    between atoms: _7  and  _8
REMARK    6  A    between atoms: _8  and  _9
REMARK    7  A    between atoms: _18  and  _20
REMARK    8  A    between atoms: _20  and  _21
REMARK    9  A    between atoms: _20  and  _23
REMARK   10  A    between atoms: _23  and  _24
REMARK   11  A    between atoms: _27  and  _29
REMARK   12  A    between atoms: _29  and  _30
REMARK   13  A    between atoms: _29  and  _32
REMARK   14  A    between atoms: _32  and  _33
REMARK   15  A    between atoms: _36  and  _38
REMARK   16  A    between atoms: _38  and  _39
REMARK   17  A    between atoms: _38  and  _41
REMARK   18  A    between atoms: _41  and  _42
REMARK   19  A    between atoms: _45  and  _47
REMARK   20  A    between atoms: _47  and  _48
REMARK   21  A    between atoms: _47  and  _50
REMARK   22  A    between atoms: _50  and  _51
REMARK   23  A    between atoms: _54  and  _56
REMARK   24  A    between atoms: _56  and  _57
REMARK   25  A    between atoms: _59  and  _61
REMARK   26  A    between atoms: _61  and  _62
REMARK   27  A    between atoms: _65  and  _67
REMARK   28  A    between atoms: _67  and  _68
REMARK   29  A    between atoms: _67  and  _70
REMARK   30  A    between atoms: _70  and  _71
REMARK   31  A    between atoms: _74  and  _76
REMARK   32  A    between atoms: _76  and  _77
REMARK   33  A    between atoms: _76  and  _79
REMARK   34  A    between atoms: _79  and  _80
REMARK   35  A    between atoms: _83  and  _85
REMARK   36  A    between atoms: _85  and  _86
REMARK   37  A    between atoms: _85  and  _88
REMARK   38  A    between atoms: _88  and  _89
REMARK   39  A    between atoms: _92  and  _94
REMARK   40  A    between atoms: _94  and  _95
REMARK   41  A    between atoms: _94  and  _97
REMARK   42  A    between atoms: _100  and  _102
REMARK   43  A    between atoms: _102  and  _103
REMARK   44  A    between atoms: _102  and  _105
REMARK   45  A    between atoms: _105  and  _106
REMARK   46  A    between atoms: _106  and  _107
REMARK   47  A    between atoms: _109  and  _111
REMARK   48  A    between atoms: _111  and  _112
REMARK   49  A    between atoms: _111  and  _114
REMARK   50  A    between atoms: _114  and  _115
REMARK   51  A    between atoms: _118  and  _120
REMARK   52  A    between atoms: _120  and  _121
REMARK   53  A    between atoms: _123  and  _125
REMARK   54  A    between atoms: _125  and  _126
REMARK   55  A    between atoms: _128  and  _130
REMARK   56  A    between atoms: _130  and  _131
REMARK   57  A    between atoms: _130  and  _133
REMARK   58  A    between atoms: _133  and  _134
REMARK   59  A    between atoms: _137  and  _139
REMARK   60  A    between atoms: _139  and  _140
REMARK   61  A    between atoms: _142  and  _144
REMARK   62  A    between atoms: _144  and  _145
REMARK   63  A    between atoms: _147  and  _149
REMARK   64  A    between atoms: _149  and  _150
REMARK   65  A    between atoms: _149  and  _152
REMARK   66  A    between atoms: _152  and  _153
REMARK   67  A    between atoms: _159  and  _161
REMARK   68  A    between atoms: _161  and  _162
REMARK   69  A    between atoms: _161  and  _164
REMARK   70  A    between atoms: _164  and  _165
REMARK   71  A    between atoms: _168  and  _170
REMARK   72  A    between atoms: _170  and  _171
REMARK   73  A    between atoms: _170  and  _173
REMARK   74  A    between atoms: _173  and  _174
REMARK   75  A    between atoms: _177  and  _179
REMARK   76  A    between atoms: _179  and  _180
REMARK   77  A    between atoms: _179  and  _182
REMARK   78  A    between atoms: _182  and  _183
REMARK   79  A    between atoms: _187  and  _188
REMARK   80  A    between atoms: _193  and  _195
REMARK   81  A    between atoms: _195  and  _196
REMARK   82  A    between atoms: _195  and  _198
REMARK   83  A    between atoms: _201  and  _203
REMARK   84  A    between atoms: _203  and  _204
REMARK   85  A    between atoms: _203  and  _206
REMARK   86  A    between atoms: _206  and  _207
REMARK   87  A    between atoms: _212  and  _214
REMARK   88  A    between atoms: _214  and  _215
REMARK   89  A    between atoms: _214  and  _217
REMARK   90  A    between atoms: _217  and  _218
REMARK   91  A    between atoms: _221  and  _223
REMARK   92  A    between atoms: _223  and  _224
REMARK   93  A    between atoms: _223  and  _226
REMARK   94  A    between atoms: _226  and  _227
REMARK   95  A    between atoms: _230  and  _232
REMARK   96  A    between atoms: _232  and  _233
REMARK   97  A    between atoms: _235  and  _237
REMARK   98  A    between atoms: _237  and  _238
REMARK   99  A    between atoms: _237  and  _240
REMARK  100  A    between atoms: _240  and  _241
REMARK  101  A    between atoms: _241  and  _242
REMARK  102  A    between atoms: _242  and  _243
REMARK  103  A    between atoms: _252  and  _254
REMARK  104  A    between atoms: _254  and  _255
REMARK  105  A    between atoms: _254  and  _257
REMARK  106  A    between atoms: _257  and  _258
REMARK  107  A    between atoms: _263  and  _265
REMARK  108  A    between atoms: _265  and  _266
REMARK  109  A    between atoms: _265  and  _268
REMARK  110  A    between atoms: _268  and  _269
REMARK  111  A    between atoms: _269  and  _270
REMARK  112  A    between atoms: _270  and  _271
REMARK  113  A    between atoms: _280  and  _282
REMARK  114  A    between atoms: _282  and  _283
REMARK  115  A    between atoms: _282  and  _285
REMARK  116  A    between atoms: _285  and  _286
REMARK  117  A    between atoms: _289  and  _291
REMARK  118  A    between atoms: _291  and  _292
REMARK  119  A    between atoms: _291  and  _294
REMARK  120  A    between atoms: _294  and  _295
REMARK  121  A    between atoms: _298  and  _300
REMARK  122  A    between atoms: _300  and  _301
REMARK  123  A    between atoms: _300  and  _303
REMARK  124  A    between atoms: _303  and  _304
REMARK  125  A    between atoms: _307  and  _309
REMARK  126  A    between atoms: _309  and  _310
REMARK  127  A    between atoms: _309  and  _312
REMARK  128  A    between atoms: _312  and  _313
REMARK  129  A    between atoms: _316  and  _318
REMARK  130  A    between atoms: _318  and  _319
REMARK  131  A    between atoms: _321  and  _323
REMARK  132  A    between atoms: _323  and  _324
REMARK  133  A    between atoms: _327  and  _329
REMARK  134  A    between atoms: _329  and  _330
REMARK  135  A    between atoms: _329  and  _332
REMARK  136  A    between atoms: _332  and  _333
REMARK  137  A    between atoms: _336  and  _338
REMARK  138  A    between atoms: _338  and  _339
REMARK  139  A    between atoms: _338  and  _341
REMARK  140  A    between atoms: _341  and  _342
REMARK  141  A    between atoms: _345  and  _347
REMARK  142  A    between atoms: _347  and  _348
REMARK  143  A    between atoms: _347  and  _350
REMARK  144  A    between atoms: _350  and  _351
REMARK  145  A    between atoms: _354  and  _356
REMARK  146  A    between atoms: _356  and  _357
REMARK  147  A    between atoms: _356  and  _359
REMARK  148  A    between atoms: _362  and  _364
REMARK  149  A    between atoms: _364  and  _365
REMARK  150  A    between atoms: _364  and  _367
REMARK  151  A    between atoms: _367  and  _368
REMARK  152  A    between atoms: _368  and  _369
REMARK  153  A    between atoms: _369  and  _370
REMARK  154  A    between atoms: _370  and  _371
REMARK  155  A    between atoms: _375  and  _377
REMARK  156  A    between atoms: _377  and  _378
REMARK  157  A    between atoms: _377  and  _380
REMARK  158  A    between atoms: _380  and  _381
REMARK  159  A    between atoms: _381  and  _382
REMARK  160  A    between atoms: _384  and  _386
REMARK  161  A    between atoms: _386  and  _387
REMARK  162  A    between atoms: _386  and  _389
REMARK  163  A    between atoms: _389  and  _390
REMARK  164  A    between atoms: _393  and  _395
REMARK  165  A    between atoms: _395  and  _396
REMARK  166  A    between atoms: _398  and  _400
REMARK  167  A    between atoms: _400  and  _401
REMARK  168  A    between atoms: _403  and  _405
REMARK  169  A    between atoms: _405  and  _406
REMARK  170  A    between atoms: _405  and  _408
REMARK  171  A    between atoms: _408  and  _409
REMARK  172  A    between atoms: _412  and  _414
REMARK  173  A    between atoms: _414  and  _415
REMARK  174  A    between atoms: _417  and  _419
REMARK  175  A    between atoms: _419  and  _420
REMARK  176  A    between atoms: _422  and  _424
REMARK  177  A    between atoms: _424  and  _425
REMARK  178  A    between atoms: _424  and  _427
REMARK  179  A    between atoms: _427  and  _428
REMARK  180  A    between atoms: _434  and  _436
REMARK  181  A    between atoms: _436  and  _437
REMARK  182  A    between atoms: _436  and  _439
REMARK  183  A    between atoms: _439  and  _440
REMARK  184  A    between atoms: _443  and  _445
REMARK  185  A    between atoms: _445  and  _446
REMARK  186  A    between atoms: _445  and  _448
REMARK  187  A    between atoms: _448  and  _449
REMARK  188  A    between atoms: _452  and  _454
REMARK  189  A    between atoms: _454  and  _455
REMARK  190  A    between atoms: _454  and  _457
REMARK  191  A    between atoms: _457  and  _458
REMARK  192  A    between atoms: _462  and  _463
REMARK  193  A    between atoms: _468  and  _470
REMARK  194  A    between atoms: _470  and  _471
REMARK  195  A    between atoms: _470  and  _473
REMARK  196  A    between atoms: _476  and  _478
REMARK  197  A    between atoms: _478  and  _479
REMARK  198  A    between atoms: _478  and  _481
REMARK  199  A    between atoms: _481  and  _482
REMARK  200  A    between atoms: _487  and  _489
REMARK  201  A    between atoms: _489  and  _490
REMARK  202  A    between atoms: _489  and  _492
REMARK  203  A    between atoms: _492  and  _493
REMARK  204  A    between atoms: _496  and  _498
REMARK  205  A    between atoms: _498  and  _499
REMARK  206  A    between atoms: _498  and  _501
REMARK  207  A    between atoms: _501  and  _502
REMARK  208  A    between atoms: _505  and  _507
REMARK  209  A    between atoms: _507  and  _508
REMARK  210  A    between atoms: _510  and  _512
REMARK  211  A    between atoms: _512  and  _513
REMARK  212  A    between atoms: _512  and  _515
REMARK  213  A    between atoms: _515  and  _516
REMARK  214  A    between atoms: _516  and  _517
REMARK  215  A    between atoms: _517  and  _518
REMARK  216  A    between atoms: _527  and  _529
REMARK  217  A    between atoms: _529  and  _530
REMARK  218  A    between atoms: _529  and  _532
REMARK  219  A    between atoms: _532  and  _533
REMARK                            x       y       z     vdW  Elec       q    Type
REMARK                         _______ _______ _______ _____ _____    ______ ____
ROOT
ATOM      1  O   HOH     1      30.999  23.304  12.240  0.00  0.00    +0.000 OA
ENDROOT
TORSDOF 0
REMARK  Name = ../refined-set-2016/2psu/2psu_pocket.pdb
REMARK  219 active torsions:
REMARK  status: ('A' for Active; 'I' for Inactive)
REMARK    1  A    between atoms: _1  and  _3
REMARK    2  A    between atoms: _3  and  _4
REMARK    3  A    between atoms: _3  and  _6
REMARK    4  A    between atoms: _6  and  _7
REMARK    5  A    between atoms: _7  and  _8
REMARK    6  A    between atoms: _8  and  _9
REMARK    7  A    between atoms: _18  and  _20
REMARK    8  A    between atoms: _20  and  _21
REMARK    9  A    between atoms: _20  and  _23
REMARK   10  A    between atoms: _23  and  _24
REMARK   11  A    between atoms: _27  and  _29
REMARK   12  A    between atoms: _29  and  _30
REMARK   13  A    between atoms: _29  and  _32
REMARK   14  A    between atoms: _32  and  _33
REMARK   15  A    between atoms: _36  and  _38
REMARK   16  A    between atoms: _38  and  _39
REMARK   17  A    between atoms: _38  and  _41
REMARK   18  A    between atoms: _41  and  _42
REMARK   19  A    between atoms: _45  and  _47
REMARK   20  A    between atoms: _47  and  _48
REMARK   21  A    between atoms: _47  and  _50
REMARK   22  A    between atoms: _50  and  _51
REMARK   23  A    between atoms: _54  and  _56
REMARK   24  A    between atoms: _56  and  _57
REMARK   25  A    between atoms: _59  and  _61
REMARK   26  A    between atoms: _61  and  _62
REMARK   27  A    between atoms: _65  and  _67
REMARK   28  A    between atoms: _67  and  _68
REMARK   29  A    between atoms: _67  and  _70
REMARK   30  A    between atoms: _70  and  _71
REMARK   31  A    between atoms: _74  and  _76
REMARK   32  A    between atoms: _76  and  _77
REMARK   33  A    between atoms: _76  and  _79
REMARK   34  A    between atoms: _79  and  _80
REMARK   35  A    between atoms: _83  and  _85
REMARK   36  A    between atoms: _85  and  _86
REMARK   37  A    between atoms: _85  and  _88
REMARK   38  A    between atoms: _88  and  _89
REMARK   39  A    between atoms: _92  and  _94
REMARK   40  A    between atoms: _94  and  _95
REMARK   41  A    between atoms: _94  and  _97
REMARK   42  A    between atoms: _100  and  _102
REMARK   43  A    between atoms: _102  and  _103
REMARK   44  A    between atoms: _102  and  _105
REMARK   45  A    between atoms: _105  and  _106
REMARK   46  A    between atoms: _106  and  _107
REMARK   47  A    between atoms: _109  and  _111
REMARK   48  A    between atoms: _111  and  _112
REMARK   49  A    between atoms: _111  and  _114
REMARK   50  A    between atoms: _114  and  _115
REMARK   51  A    between atoms: _118  and  _120
REMARK   52  A    between atoms: _120  and  _121
REMARK   53  A    between atoms: _123  and  _125
REMARK   54  A    between atoms: _125  and  _126
REMARK   55  A    between atoms: _128  and  _130
REMARK   56  A    between atoms: _130  and  _131
REMARK   57  A    between atoms: _130  and  _133
REMARK   58  A    between atoms: _133  and  _134
REMARK   59  A    between atoms: _137  and  _139
REMARK   60  A    between atoms: _139  and  _140
REMARK   61  A    between atoms: _142  and  _144
REMARK   62  A    between atoms: _144  and  _145
REMARK   63  A    between atoms: _147  and  _149
REMARK   64  A    between atoms: _149  and  _150
REMARK   65  A    between atoms: _149  and  _152
REMARK   66  A    between atoms: _152  and  _153
REMARK   67  A    between atoms: _159  and  _161
REMARK   68  A    between atoms: _161  and  _162
REMARK   69  A    between atoms: _161  and  _164
REMARK   70  A    between atoms: _164  and  _165
REMARK   71  A    between atoms: _168  and  _170
REMARK   72  A    between atoms: _170  and  _171
REMARK   73  A    between atoms: _170  and  _173
REMARK   74  A    between atoms: _173  and  _174
REMARK   75  A    between atoms: _177  and  _179
REMARK   76  A    between atoms: _179  and  _180
REMARK   77  A    between atoms: _179  and  _182
REMARK   78  A    between atoms: _182  and  _183
REMARK   79  A    between atoms: _187  and  _188
REMARK   80  A    between atoms: _193  and  _195
REMARK   81  A    between atoms: _195  and  _196
REMARK   82  A    between atoms: _195  and  _198
REMARK   83  A    between atoms: _201  and  _203
REMARK   84  A    between atoms: _203  and  _204
REMARK   85  A    between atoms: _203  and  _206
REMARK   86  A    between atoms: _206  and  _207
REMARK   87  A    between atoms: _212  and  _214
REMARK   88  A    between atoms: _214  and  _215
REMARK   89  A    between atoms: _214  and  _217
REMARK   90  A    between atoms: _217  and  _218
REMARK   91  A    between atoms: _221  and  _223
REMARK   92  A    between atoms: _223  and  _224
REMARK   93  A    between atoms: _223  and  _226
REMARK   94  A    between atoms: _226  and  _227
REMARK   95  A    between atoms: _230  and  _232
REMARK   96  A    between atoms: _232  and  _233
REMARK   97  A    between atoms: _235  and  _237
REMARK   98  A    between atoms: _237  and  _238
REMARK   99  A    between atoms: _237  and  _240
REMARK  100  A    between atoms: _240  and  _241
REMARK  101  A    between atoms: _241  and  _242
REMARK  102  A    between atoms: _242  and  _243
REMARK  103  A    between atoms: _252  and  _254
REMARK  104  A    between atoms: _254  and  _255
REMARK  105  A    between atoms: _254  and  _257
REMARK  106  A    between atoms: _257  and  _258
REMARK  107  A    between atoms: _263  and  _265
REMARK  108  A    between atoms: _265  and  _266
REMARK  109  A    between atoms: _265  and  _268
REMARK  110  A    between atoms: _268  and  _269
REMARK  111  A    between atoms: _269  and  _270
REMARK  112  A    between atoms: _270  and  _271
REMARK  113  A    between atoms: _280  and  _282
REMARK  114  A    between atoms: _282  and  _283
REMARK  115  A    between atoms: _282  and  _285
REMARK  116  A    between atoms: _285  and  _286
REMARK  117  A    between atoms: _289  and  _291
REMARK  118  A    between atoms: _291  and  _292
REMARK  119  A    between atoms: _291  and  _294
REMARK  120  A    between atoms: _294  and  _295
REMARK  121  A    between atoms: _298  and  _300
REMARK  122  A    between atoms: _300  and  _301
REMARK  123  A    between atoms: _300  and  _303
REMARK  124  A    between atoms: _303  and  _304
REMARK  125  A    between atoms: _307  and  _309
REMARK  126  A    between atoms: _309  and  _310
REMARK  127  A    between atoms: _309  and  _312
REMARK  128  A    between atoms: _312  and  _313
REMARK  129  A    between atoms: _316  and  _318
REMARK  130  A    between atoms: _318  and  _319
REMARK  131  A    between atoms: _321  and  _323
REMARK  132  A    between atoms: _323  and  _324
REMARK  133  A    between atoms: _327  and  _329
REMARK  134  A    between atoms: _329  and  _330
REMARK  135  A    between atoms: _329  and  _332
REMARK  136  A    between atoms: _332  and  _333
REMARK  137  A    between atoms: _336  and  _338
REMARK  138  A    between atoms: _338  and  _339
REMARK  139  A    between atoms: _338  and  _341
REMARK  140  A    between atoms: _341  and  _342
REMARK  141  A    between atoms: _345  and  _347
REMARK  142  A    between atoms: _347  and  _348
REMARK  143  A    between atoms: _347  and  _350
REMARK  144  A    between atoms: _350  and  _351
REMARK  145  A    between atoms: _354  and  _356
REMARK  146  A    between atoms: _356  and  _357
REMARK  147  A    between atoms: _356  and  _359
REMARK  148  A    between atoms: _362  and  _364
REMARK  149  A    between atoms: _364  and  _365
REMARK  150  A    between atoms: _364  and  _367
REMARK  151  A    between atoms: _367  and  _368
REMARK  152  A    between atoms: _368  and  _369
REMARK  153  A    between atoms: _369  and  _370
REMARK  154  A    between atoms: _370  and  _371
REMARK  155  A    between atoms: _375  and  _377
REMARK  156  A    between atoms: _377  and  _378
REMARK  157  A    between atoms: _377  and  _380
REMARK  158  A    between atoms: _380  and  _381
REMARK  159  A    between atoms: _381  and  _382
REMARK  160  A    between atoms: _384  and  _386
REMARK  161  A    between atoms: _386  and  _387
REMARK  162  A    between atoms: _386  and  _389
REMARK  163  A    between atoms: _389  and  _390
REMARK  164  A    between atoms: _393  and  _395
REMARK  165  A    between atoms: _395  and  _396
REMARK  166  A    between atoms: _398  and  _400
REMARK  167  A    between atoms: _400  and  _401
REMARK  168  A    between atoms: _403  and  _405
REMARK  169  A    between atoms: _405  and  _406
REMARK  170  A    between atoms: _405  and  _408
REMARK  171  A    between atoms: _408  and  _409
REMARK  172  A    between atoms: _412  and  _414
REMARK  173  A    between atoms: _414  and  _415
REMARK  174  A    between atoms: _417  and  _419
REMARK  175  A    between atoms: _419  and  _420
REMARK  176  A    between atoms: _422  and  _424
REMARK  177  A    between atoms: _424  and  _425
REMARK  178  A    between atoms: _424  and  _427
REMARK  179  A    between atoms: _427  and  _428
REMARK  180  A    between atoms: _434  and  _436
REMARK  181  A    between atoms: _436  and  _437
REMARK  182  A    between atoms: _436  and  _439
REMARK  183  A    between atoms: _439  and  _440
REMARK  184  A    between atoms: _443  and  _445
REMARK  185  A    between atoms: _445  and  _446
REMARK  186  A    between atoms: _445  and  _448
REMARK  187  A    between atoms: _448  and  _449
REMARK  188  A    between atoms: _452  and  _454
REMARK  189  A    between atoms: _454  and  _455
REMARK  190  A    between atoms: _454  and  _457
REMARK  191  A    between atoms: _457  and  _458
REMARK  192  A    between atoms: _462  and  _463
REMARK  193  A    between atoms: _468  and  _470
REMARK  194  A    between atoms: _470  and  _471
REMARK  195  A    between atoms: _470  and  _473
REMARK  196  A    between atoms: _476  and  _478
REMARK  197  A    between atoms: _478  and  _479
REMARK  198  A    between atoms: _478  and  _481
REMARK  199  A    between atoms: _481  and  _482
REMARK  200  A    between atoms: _487  and  _489
REMARK  201  A    between atoms: _489  and  _490
REMARK  202  A    between atoms: _489  and  _492
REMARK  203  A    between atoms: _492  and  _493
REMARK  204  A    between atoms: _496  and  _498
REMARK  205  A    between atoms: _498  and  _499
REMARK  206  A    between atoms: _498  and  _501
REMARK  207  A    between atoms: _501  and  _502
REMARK  208  A    between atoms: _505  and  _507
REMARK  209  A    between atoms: _507  and  _508
REMARK  210  A    between atoms: _510  and  _512
REMARK  211  A    between atoms: _512  and  _513
REMARK  212  A    between atoms: _512  and  _515
REMARK  213  A    between atoms: _515  and  _516
REMARK  214  A    between atoms: _516  and  _517
REMARK  215  A    between atoms: _517  and  _518
REMARK  216  A    between atoms: _527  and  _529
REMARK  217  A    between atoms: _529  and  _530
REMARK  218  A    between atoms: _529  and  _532
REMARK  219  A    between atoms: _532  and  _533
REMARK                            x       y       z     vdW  Elec       q    Type
REMARK                         _______ _______ _______ _____ _____    ______ ____
ROOT
ATOM      1  O   HOH     1      23.134  25.120   5.314  0.00  0.00    +0.000 OA
ENDROOT
TORSDOF 0
REMARK  Name = ../refined-set-2016/2psu/2psu_pocket.pdb
REMARK  219 active torsions:
REMARK  status: ('A' for Active; 'I' for Inactive)
REMARK    1  A    between atoms: _1  and  _3
REMARK    2  A    between atoms: _3  and  _4
REMARK    3  A    between atoms: _3  and  _6
REMARK    4  A    between atoms: _6  and  _7
REMARK    5  A    between atoms: _7  and  _8
REMARK    6  A    between atoms: _8  and  _9
REMARK    7  A    between atoms: _18  and  _20
REMARK    8  A    between atoms: _20  and  _21
REMARK    9  A    between atoms: _20  and  _23
REMARK   10  A    between atoms: _23  and  _24
REMARK   11  A    between atoms: _27  and  _29
REMARK   12  A    between atoms: _29  and  _30
REMARK   13  A    between atoms: _29  and  _32
REMARK   14  A    between atoms: _32  and  _33
REMARK   15  A    between atoms: _36  and  _38
REMARK   16  A    between atoms: _38  and  _39
REMARK   17  A    between atoms: _38  and  _41
REMARK   18  A    between atoms: _41  and  _42
REMARK   19  A    between atoms: _45  and  _47
REMARK   20  A    between atoms: _47  and  _48
REMARK   21  A    between atoms: _47  and  _50
REMARK   22  A    between atoms: _50  and  _51
REMARK   23  A    between atoms: _54  and  _56
REMARK   24  A    between atoms: _56  and  _57
REMARK   25  A    between atoms: _59  and  _61
REMARK   26  A    between atoms: _61  and  _62
REMARK   27  A    between atoms: _65  and  _67
REMARK   28  A    between atoms: _67  and  _68
REMARK   29  A    between atoms: _67  and  _70
REMARK   30  A    between atoms: _70  and  _71
REMARK   31  A    between atoms: _74  and  _76
REMARK   32  A    between atoms: _76  and  _77
REMARK   33  A    between atoms: _76  and  _79
REMARK   34  A    between atoms: _79  and  _80
REMARK   35  A    between atoms: _83  and  _85
REMARK   36  A    between atoms: _85  and  _86
REMARK   37  A    between atoms: _85  and  _88
REMARK   38  A    between atoms: _88  and  _89
REMARK   39  A    between atoms: _92  and  _94
REMARK   40  A    between atoms: _94  and  _95
REMARK   41  A    between atoms: _94  and  _97
REMARK   42  A    between atoms: _100  and  _102
REMARK   43  A    between atoms: _102  and  _103
REMARK   44  A    between atoms: _102  and  _105
REMARK   45  A    between atoms: _105  and  _106
REMARK   46  A    between atoms: _106  and  _107
REMARK   47  A    between atoms: _109  and  _111
REMARK   48  A    between atoms: _111  and  _112
REMARK   49  A    between atoms: _111  and  _114
REMARK   50  A    between atoms: _114  and  _115
REMARK   51  A    between atoms: _118  and  _120
REMARK   52  A    between atoms: _120  and  _121
REMARK   53  A    between atoms: _123  and  _125
REMARK   54  A    between atoms: _125  and  _126
REMARK   55  A    between atoms: _128  and  _130
REMARK   56  A    between atoms: _130  and  _131
REMARK   57  A    between atoms: _130  and  _133
REMARK   58  A    between atoms: _133  and  _134
REMARK   59  A    between atoms: _137  and  _139
REMARK   60  A    between atoms: _139  and  _140
REMARK   61  A    between atoms: _142  and  _144
REMARK   62  A    between atoms: _144  and  _145
REMARK   63  A    between atoms: _147  and  _149
REMARK   64  A    between atoms: _149  and  _150
REMARK   65  A    between atoms: _149  and  _152
REMARK   66  A    between atoms: _152  and  _153
REMARK   67  A    between atoms: _159  and  _161
REMARK   68  A    between atoms: _161  and  _162
REMARK   69  A    between atoms: _161  and  _164
REMARK   70  A    between atoms: _164  and  _165
REMARK   71  A    between atoms: _168  and  _170
REMARK   72  A    between atoms: _170  and  _171
REMARK   73  A    between atoms: _170  and  _173
REMARK   74  A    between atoms: _173  and  _174
REMARK   75  A    between atoms: _177  and  _179
REMARK   76  A    between atoms: _179  and  _180
REMARK   77  A    between atoms: _179  and  _182
REMARK   78  A    between atoms: _182  and  _183
REMARK   79  A    between atoms: _187  and  _188
REMARK   80  A    between atoms: _193  and  _195
REMARK   81  A    between atoms: _195  and  _196
REMARK   82  A    between atoms: _195  and  _198
REMARK   83  A    between atoms: _201  and  _203
REMARK   84  A    between atoms: _203  and  _204
REMARK   85  A    between atoms: _203  and  _206
REMARK   86  A    between atoms: _206  and  _207
REMARK   87  A    between atoms: _212  and  _214
REMARK   88  A    between atoms: _214  and  _215
REMARK   89  A    between atoms: _214  and  _217
REMARK   90  A    between atoms: _217  and  _218
REMARK   91  A    between atoms: _221  and  _223
REMARK   92  A    between atoms: _223  and  _224
REMARK   93  A    between atoms: _223  and  _226
REMARK   94  A    between atoms: _226  and  _227
REMARK   95  A    between atoms: _230  and  _232
REMARK   96  A    between atoms: _232  and  _233
REMARK   97  A    between atoms: _235  and  _237
REMARK   98  A    between atoms: _237  and  _238
REMARK   99  A    between atoms: _237  and  _240
REMARK  100  A    between atoms: _240  and  _241
REMARK  101  A    between atoms: _241  and  _242
REMARK  102  A    between atoms: _242  and  _243
REMARK  103  A    between atoms: _252  and  _254
REMARK  104  A    between atoms: _254  and  _255
REMARK  105  A    between atoms: _254  and  _257
REMARK  106  A    between atoms: _257  and  _258
REMARK  107  A    between atoms: _263  and  _265
REMARK  108  A    between atoms: _265  and  _266
REMARK  109  A    between atoms: _265  and  _268
REMARK  110  A    between atoms: _268  and  _269
REMARK  111  A    between atoms: _269  and  _270
REMARK  112  A    between atoms: _270  and  _271
REMARK  113  A    between atoms: _280  and  _282
REMARK  114  A    between atoms: _282  and  _283
REMARK  115  A    between atoms: _282  and  _285
REMARK  116  A    between atoms: _285  and  _286
REMARK  117  A    between atoms: _289  and  _291
REMARK  118  A    between atoms: _291  and  _292
REMARK  119  A    between atoms: _291  and  _294
REMARK  120  A    between atoms: _294  and  _295
REMARK  121  A    between atoms: _298  and  _300
REMARK  122  A    between atoms: _300  and  _301
REMARK  123  A    between atoms: _300  and  _303
REMARK  124  A    between atoms: _303  and  _304
REMARK  125  A    between atoms: _307  and  _309
REMARK  126  A    between atoms: _309  and  _310
REMARK  127  A    between atoms: _309  and  _312
REMARK  128  A    between atoms: _312  and  _313
REMARK  129  A    between atoms: _316  and  _318
REMARK  130  A    between atoms: _318  and  _319
REMARK  131  A    between atoms: _321  and  _323
REMARK  132  A    between atoms: _323  and  _324
REMARK  133  A    between atoms: _327  and  _329
REMARK  134  A    between atoms: _329  and  _330
REMARK  135  A    between atoms: _329  and  _332
REMARK  136  A    between atoms: _332  and  _333
REMARK  137  A    between atoms: _336  and  _338
REMARK  138  A    between atoms: _338  and  _339
REMARK  139  A    between atoms: _338  and  _341
REMARK  140  A    between atoms: _341  and  _342
REMARK  141  A    between atoms: _345  and  _347
REMARK  142  A    between atoms: _347  and  _348
REMARK  143  A    between atoms: _347  and  _350
REMARK  144  A    between atoms: _350  and  _351
REMARK  145  A    between atoms: _354  and  _356
REMARK  146  A    between atoms: _356  and  _357
REMARK  147  A    between atoms: _356  and  _359
REMARK  148  A    between atoms: _362  and  _364
REMARK  149  A    between atoms: _364  and  _365
REMARK  150  A    between atoms: _364  and  _367
REMARK  151  A    between atoms: _367  and  _368
REMARK  152  A    between atoms: _368  and  _369
REMARK  153  A    between atoms: _369  and  _370
REMARK  154  A    between atoms: _370  and  _371
REMARK  155  A    between atoms: _375  and  _377
REMARK  156  A    between atoms: _377  and  _378
REMARK  157  A    between atoms: _377  and  _380
REMARK  158  A    between atoms: _380  and  _381
REMARK  159  A    between atoms: _381  and  _382
REMARK  160  A    between atoms: _384  and  _386
REMARK  161  A    between atoms: _386  and  _387
REMARK  162  A    between atoms: _386  and  _389
REMARK  163  A    between atoms: _389  and  _390
REMARK  164  A    between atoms: _393  and  _395
REMARK  165  A    between atoms: _395  and  _396
REMARK  166  A    between atoms: _398  and  _400
REMARK  167  A    between atoms: _400  and  _401
REMARK  168  A    between atoms: _403  and  _405
REMARK  169  A    between atoms: _405  and  _406
REMARK  170  A    between atoms: _405  and  _408
REMARK  171  A    between atoms: _408  and  _409
REMARK  172  A    between atoms: _412  and  _414
REMARK  173  A    between atoms: _414  and  _415
REMARK  174  A    between atoms: _417  and  _419
REMARK  175  A    between atoms: _419  and  _420
REMARK  176  A    between atoms: _422  and  _424
REMARK  177  A    between atoms: _424  and  _425
REMARK  178  A    between atoms: _424  and  _427
REMARK  179  A    between atoms: _427  and  _428
REMARK  180  A    between atoms: _434  and  _436
REMARK  181  A    between atoms: _436  and  _437
REMARK  182  A    between atoms: _436  and  _439
REMARK  183  A    between atoms: _439  and  _440
REMARK  184  A    between atoms: _443  and  _445
REMARK  185  A    between atoms: _445  and  _446
REMARK  186  A    between atoms: _445  and  _448
REMARK  187  A    between atoms: _448  and  _449
REMARK  188  A    between atoms: _452  and  _454
REMARK  189  A    between atoms: _454  and  _455
REMARK  190  A    between atoms: _454  and  _457
REMARK  191  A    between atoms: _457  and  _458
REMARK  192  A    between atoms: _462  and  _463
REMARK  193  A    between atoms: _468  and  _470
REMARK  194  A    between atoms: _470  and  _471
REMARK  195  A    between atoms: _470  and  _473
REMARK  196  A    between atoms: _476  and  _478
REMARK  197  A    between atoms: _478  and  _479
REMARK  198  A    between atoms: _478  and  _481
REMARK  199  A    between atoms: _481  and  _482
REMARK  200  A    between atoms: _487  and  _489
REMARK  201  A    between atoms: _489  and  _490
REMARK  202  A    between atoms: _489  and  _492
REMARK  203  A    between atoms: _492  and  _493
REMARK  204  A    between atoms: _496  and  _498
REMARK  205  A    between atoms: _498  and  _499
REMARK  206  A    between atoms: _498  and  _501
REMARK  207  A    between atoms: _501  and  _502
REMARK  208  A    between atoms: _505  and  _507
REMARK  209  A    between atoms: _507  and  _508
REMARK  210  A    between atoms: _510  and  _512
REMARK  211  A    between atoms: _512  and  _513
REMARK  212  A    between atoms: _512  and  _515
REMARK  213  A    between atoms: _515  and  _516
REMARK  214  A    between atoms: _516  and  _517
REMARK  215  A    between atoms: _517  and  _518
REMARK  216  A    between atoms: _527  and  _529
REMARK  217  A    between atoms: _529  and  _530
REMARK  218  A    between atoms: _529  and  _532
REMARK  219  A    between atoms: _532  and  _533
REMARK                            x       y       z     vdW  Elec       q    Type
REMARK                         _______ _______ _______ _____ _____    ______ ____
ROOT
ATOM      1  O   HOH     1      23.832  20.933   8.280  0.00  0.00    +0.000 OA
ENDROOT
TORSDOF 0
REMARK  Name = ../refined-set-2016/2psu/2psu_pocket.pdb
REMARK  219 active torsions:
REMARK  status: ('A' for Active; 'I' for Inactive)
REMARK    1  A    between atoms: _1  and  _3
REMARK    2  A    between atoms: _3  and  _4
REMARK    3  A    between atoms: _3  and  _6
REMARK    4  A    between atoms: _6  and  _7
REMARK    5  A    between atoms: _7  and  _8
REMARK    6  A    between atoms: _8  and  _9
REMARK    7  A    between atoms: _18  and  _20
REMARK    8  A    between atoms: _20  and  _21
REMARK    9  A    between atoms: _20  and  _23
REMARK   10  A    between atoms: _23  and  _24
REMARK   11  A    between atoms: _27  and  _29
REMARK   12  A    between atoms: _29  and  _30
REMARK   13  A    between atoms: _29  and  _32
REMARK   14  A    between atoms: _32  and  _33
REMARK   15  A    between atoms: _36  and  _38
REMARK   16  A    between atoms: _38  and  _39
REMARK   17  A    between atoms: _38  and  _41
REMARK   18  A    between atoms: _41  and  _42
REMARK   19  A    between atoms: _45  and  _47
REMARK   20  A    between atoms: _47  and  _48
REMARK   21  A    between atoms: _47  and  _50
REMARK   22  A    between atoms: _50  and  _51
REMARK   23  A    between atoms: _54  and  _56
REMARK   24  A    between atoms: _56  and  _57
REMARK   25  A    between atoms: _59  and  _61
REMARK   26  A    between atoms: _61  and  _62
REMARK   27  A    between atoms: _65  and  _67
REMARK   28  A    between atoms: _67  and  _68
REMARK   29  A    between atoms: _67  and  _70
REMARK   30  A    between atoms: _70  and  _71
REMARK   31  A    between atoms: _74  and  _76
REMARK   32  A    between atoms: _76  and  _77
REMARK   33  A    between atoms: _76  and  _79
REMARK   34  A    between atoms: _79  and  _80
REMARK   35  A    between atoms: _83  and  _85
REMARK   36  A    between atoms: _85  and  _86
REMARK   37  A    between atoms: _85  and  _88
REMARK   38  A    between atoms: _88  and  _89
REMARK   39  A    between atoms: _92  and  _94
REMARK   40  A    between atoms: _94  and  _95
REMARK   41  A    between atoms: _94  and  _97
REMARK   42  A    between atoms: _100  and  _102
REMARK   43  A    between atoms: _102  and  _103
REMARK   44  A    between atoms: _102  and  _105
REMARK   45  A    between atoms: _105  and  _106
REMARK   46  A    between atoms: _106  and  _107
REMARK   47  A    between atoms: _109  and  _111
REMARK   48  A    between atoms: _111  and  _112
REMARK   49  A    between atoms: _111  and  _114
REMARK   50  A    between atoms: _114  and  _115
REMARK   51  A    between atoms: _118  and  _120
REMARK   52  A    between atoms: _120  and  _121
REMARK   53  A    between atoms: _123  and  _125
REMARK   54  A    between atoms: _125  and  _126
REMARK   55  A    between atoms: _128  and  _130
REMARK   56  A    between atoms: _130  and  _131
REMARK   57  A    between atoms: _130  and  _133
REMARK   58  A    between atoms: _133  and  _134
REMARK   59  A    between atoms: _137  and  _139
REMARK   60  A    between atoms: _139  and  _140
REMARK   61  A    between atoms: _142  and  _144
REMARK   62  A    between atoms: _144  and  _145
REMARK   63  A    between atoms: _147  and  _149
REMARK   64  A    between atoms: _149  and  _150
REMARK   65  A    between atoms: _149  and  _152
REMARK   66  A    between atoms: _152  and  _153
REMARK   67  A    between atoms: _159  and  _161
REMARK   68  A    between atoms: _161  and  _162
REMARK   69  A    between atoms: _161  and  _164
REMARK   70  A    between atoms: _164  and  _165
REMARK   71  A    between atoms: _168  and  _170
REMARK   72  A    between atoms: _170  and  _171
REMARK   73  A    between atoms: _170  and  _173
REMARK   74  A    between atoms: _173  and  _174
REMARK   75  A    between atoms: _177  and  _179
REMARK   76  A    between atoms: _179  and  _180
REMARK   77  A    between atoms: _179  and  _182
REMARK   78  A    between atoms: _182  and  _183
REMARK   79  A    between atoms: _187  and  _188
REMARK   80  A    between atoms: _193  and  _195
REMARK   81  A    between atoms: _195  and  _196
REMARK   82  A    between atoms: _195  and  _198
REMARK   83  A    between atoms: _201  and  _203
REMARK   84  A    between atoms: _203  and  _204
REMARK   85  A    between atoms: _203  and  _206
REMARK   86  A    between atoms: _206  and  _207
REMARK   87  A    between atoms: _212  and  _214
REMARK   88  A    between atoms: _214  and  _215
REMARK   89  A    between atoms: _214  and  _217
REMARK   90  A    between atoms: _217  and  _218
REMARK   91  A    between atoms: _221  and  _223
REMARK   92  A    between atoms: _223  and  _224
REMARK   93  A    between atoms: _223  and  _226
REMARK   94  A    between atoms: _226  and  _227
REMARK   95  A    between atoms: _230  and  _232
REMARK   96  A    between atoms: _232  and  _233
REMARK   97  A    between atoms: _235  and  _237
REMARK   98  A    between atoms: _237  and  _238
REMARK   99  A    between atoms: _237  and  _240
REMARK  100  A    between atoms: _240  and  _241
REMARK  101  A    between atoms: _241  and  _242
REMARK  102  A    between atoms: _242  and  _243
REMARK  103  A    between atoms: _252  and  _254
REMARK  104  A    between atoms: _254  and  _255
REMARK  105  A    between atoms: _254  and  _257
REMARK  106  A    between atoms: _257  and  _258
REMARK  107  A    between atoms: _263  and  _265
REMARK  108  A    between atoms: _265  and  _266
REMARK  109  A    between atoms: _265  and  _268
REMARK  110  A    between atoms: _268  and  _269
REMARK  111  A    between atoms: _269  and  _270
REMARK  112  A    between atoms: _270  and  _271
REMARK  113  A    between atoms: _280  and  _282
REMARK  114  A    between atoms: _282  and  _283
REMARK  115  A    between atoms: _282  and  _285
REMARK  116  A    between atoms: _285  and  _286
REMARK  117  A    between atoms: _289  and  _291
REMARK  118  A    between atoms: _291  and  _292
REMARK  119  A    between atoms: _291  and  _294
REMARK  120  A    between atoms: _294  and  _295
REMARK  121  A    between atoms: _298  and  _300
REMARK  122  A    between atoms: _300  and  _301
REMARK  123  A    between atoms: _300  and  _303
REMARK  124  A    between atoms: _303  and  _304
REMARK  125  A    between atoms: _307  and  _309
REMARK  126  A    between atoms: _309  and  _310
REMARK  127  A    between atoms: _309  and  _312
REMARK  128  A    between atoms: _312  and  _313
REMARK  129  A    between atoms: _316  and  _318
REMARK  130  A    between atoms: _318  and  _319
REMARK  131  A    between atoms: _321  and  _323
REMARK  132  A    between atoms: _323  and  _324
REMARK  133  A    between atoms: _327  and  _329
REMARK  134  A    between atoms: _329  and  _330
REMARK  135  A    between atoms: _329  and  _332
REMARK  136  A    between atoms: _332  and  _333
REMARK  137  A    between atoms: _336  and  _338
REMARK  138  A    between atoms: _338  and  _339
REMARK  139  A    between atoms: _338  and  _341
REMARK  140  A    between atoms: _341  and  _342
REMARK  141  A    between atoms: _345  and  _347
REMARK  142  A    between atoms: _347  and  _348
REMARK  143  A    between atoms: _347  and  _350
REMARK  144  A    between atoms: _350  and  _351
REMARK  145  A    between atoms: _354  and  _356
REMARK  146  A    between atoms: _356  and  _357
REMARK  147  A    between atoms: _356  and  _359
REMARK  148  A    between atoms: _362  and  _364
REMARK  149  A    between atoms: _364  and  _365
REMARK  150  A    between atoms: _364  and  _367
REMARK  151  A    between atoms: _367  and  _368
REMARK  152  A    between atoms: _368  and  _369
REMARK  153  A    between atoms: _369  and  _370
REMARK  154  A    between atoms: _370  and  _371
REMARK  155  A    between atoms: _375  and  _377
REMARK  156  A    between atoms: _377  and  _378
REMARK  157  A    between atoms: _377  and  _380
REMARK  158  A    between atoms: _380  and  _381
REMARK  159  A    between atoms: _381  and  _382
REMARK  160  A    between atoms: _384  and  _386
REMARK  161  A    between atoms: _386  and  _387
REMARK  162  A    between atoms: _386  and  _389
REMARK  163  A    between atoms: _389  and  _390
REMARK  164  A    between atoms: _393  and  _395
REMARK  165  A    between atoms: _395  and  _396
REMARK  166  A    between atoms: _398  and  _400
REMARK  167  A    between atoms: _400  and  _401
REMARK  168  A    between atoms: _403  and  _405
REMARK  169  A    between atoms: _405  and  _406
REMARK  170  A    between atoms: _405  and  _408
REMARK  171  A    between atoms: _408  and  _409
REMARK  172  A    between atoms: _412  and  _414
REMARK  173  A    between atoms: _414  and  _415
REMARK  174  A    between atoms: _417  and  _419
REMARK  175  A    between atoms: _419  and  _420
REMARK  176  A    between atoms: _422  and  _424
REMARK  177  A    between atoms: _424  and  _425
REMARK  178  A    between atoms: _424  and  _427
REMARK  179  A    between atoms: _427  and  _428
REMARK  180  A    between atoms: _434  and  _436
REMARK  181  A    between atoms: _436  and  _437
REMARK  182  A    between atoms: _436  and  _439
REMARK  183  A    between atoms: _439  and  _440
REMARK  184  A    between atoms: _443  and  _445
REMARK  185  A    between atoms: _445  and  _446
REMARK  186  A    between atoms: _445  and  _448
REMARK  187  A    between atoms: _448  and  _449
REMARK  188  A    between atoms: _452  and  _454
REMARK  189  A    between atoms: _454  and  _455
REMARK  190  A    between atoms: _454  and  _457
REMARK  191  A    between atoms: _457  and  _458
REMARK  192  A    between atoms: _462  and  _463
REMARK  193  A    between atoms: _468  and  _470
REMARK  194  A    between atoms: _470  and  _471
REMARK  195  A    between atoms: _470  and  _473
REMARK  196  A    between atoms: _476  and  _478
REMARK  197  A    between atoms: _478  and  _479
REMARK  198  A    between atoms: _478  and  _481
REMARK  199  A    between atoms: _481  and  _482
REMARK  200  A    between atoms: _487  and  _489
REMARK  201  A    between atoms: _489  and  _490
REMARK  202  A    between atoms: _489  and  _492
REMARK  203  A    between atoms: _492  and  _493
REMARK  204  A    between atoms: _496  and  _498
REMARK  205  A    between atoms: _498  and  _499
REMARK  206  A    between atoms: _498  and  _501
REMARK  207  A    between atoms: _501  and  _502
REMARK  208  A    between atoms: _505  and  _507
REMARK  209  A    between atoms: _507  and  _508
REMARK  210  A    between atoms: _510  and  _512
REMARK  211  A    between atoms: _512  and  _513
REMARK  212  A    between atoms: _512  and  _515
REMARK  213  A    between atoms: _515  and  _516
REMARK  214  A    between atoms: _516  and  _517
REMARK  215  A    between atoms: _517  and  _518
REMARK  216  A    between atoms: _527  and  _529
REMARK  217  A    between atoms: _529  and  _530
REMARK  218  A    between atoms: _529  and  _532
REMARK  219  A    between atoms: _532  and  _533
REMARK                            x       y       z     vdW  Elec       q    Type
REMARK                         _______ _______ _______ _____ _____    ______ ____
ROOT
ATOM      1  O   HOH     1      26.341  22.299   7.268  0.00  0.00    +0.000 OA
ENDROOT
TORSDOF 0
REMARK  Name = ../refined-set-2016/2psu/2psu_pocket.pdb
REMARK  219 active torsions:
REMARK  status: ('A' for Active; 'I' for Inactive)
REMARK    1  A    between atoms: _1  and  _3
REMARK    2  A    between atoms: _3  and  _4
REMARK    3  A    between atoms: _3  and  _6
REMARK    4  A    between atoms: _6  and  _7
REMARK    5  A    between atoms: _7  and  _8
REMARK    6  A    between atoms: _8  and  _9
REMARK    7  A    between atoms: _18  and  _20
REMARK    8  A    between atoms: _20  and  _21
REMARK    9  A    between atoms: _20  and  _23
REMARK   10  A    between atoms: _23  and  _24
REMARK   11  A    between atoms: _27  and  _29
REMARK   12  A    between atoms: _29  and  _30
REMARK   13  A    between atoms: _29  and  _32
REMARK   14  A    between atoms: _32  and  _33
REMARK   15  A    between atoms: _36  and  _38
REMARK   16  A    between atoms: _38  and  _39
REMARK   17  A    between atoms: _38  and  _41
REMARK   18  A    between atoms: _41  and  _42
REMARK   19  A    between atoms: _45  and  _47
REMARK   20  A    between atoms: _47  and  _48
REMARK   21  A    between atoms: _47  and  _50
REMARK   22  A    between atoms: _50  and  _51
REMARK   23  A    between atoms: _54  and  _56
REMARK   24  A    between atoms: _56  and  _57
REMARK   25  A    between atoms: _59  and  _61
REMARK   26  A    between atoms: _61  and  _62
REMARK   27  A    between atoms: _65  and  _67
REMARK   28  A    between atoms: _67  and  _68
REMARK   29  A    between atoms: _67  and  _70
REMARK   30  A    between atoms: _70  and  _71
REMARK   31  A    between atoms: _74  and  _76
REMARK   32  A    between atoms: _76  and  _77
REMARK   33  A    between atoms: _76  and  _79
REMARK   34  A    between atoms: _79  and  _80
REMARK   35  A    between atoms: _83  and  _85
REMARK   36  A    between atoms: _85  and  _86
REMARK   37  A    between atoms: _85  and  _88
REMARK   38  A    between atoms: _88  and  _89
REMARK   39  A    between atoms: _92  and  _94
REMARK   40  A    between atoms: _94  and  _95
REMARK   41  A    between atoms: _94  and  _97
REMARK   42  A    between atoms: _100  and  _102
REMARK   43  A    between atoms: _102  and  _103
REMARK   44  A    between atoms: _102  and  _105
REMARK   45  A    between atoms: _105  and  _106
REMARK   46  A    between atoms: _106  and  _107
REMARK   47  A    between atoms: _109  and  _111
REMARK   48  A    between atoms: _111  and  _112
REMARK   49  A    between atoms: _111  and  _114
REMARK   50  A    between atoms: _114  and  _115
REMARK   51  A    between atoms: _118  and  _120
REMARK   52  A    between atoms: _120  and  _121
REMARK   53  A    between atoms: _123  and  _125
REMARK   54  A    between atoms: _125  and  _126
REMARK   55  A    between atoms: _128  and  _130
REMARK   56  A    between atoms: _130  and  _131
REMARK   57  A    between atoms: _130  and  _133
REMARK   58  A    between atoms: _133  and  _134
REMARK   59  A    between atoms: _137  and  _139
REMARK   60  A    between atoms: _139  and  _140
REMARK   61  A    between atoms: _142  and  _144
REMARK   62  A    between atoms: _144  and  _145
REMARK   63  A    between atoms: _147  and  _149
REMARK   64  A    between atoms: _149  and  _150
REMARK   65  A    between atoms: _149  and  _152
REMARK   66  A    between atoms: _152  and  _153
REMARK   67  A    between atoms: _159  and  _161
REMARK   68  A    between atoms: _161  and  _162
REMARK   69  A    between atoms: _161  and  _164
REMARK   70  A    between atoms: _164  and  _165
REMARK   71  A    between atoms: _168  and  _170
REMARK   72  A    between atoms: _170  and  _171
REMARK   73  A    between atoms: _170  and  _173
REMARK   74  A    between atoms: _173  and  _174
REMARK   75  A    between atoms: _177  and  _179
REMARK   76  A    between atoms: _179  and  _180
REMARK   77  A    between atoms: _179  and  _182
REMARK   78  A    between atoms: _182  and  _183
REMARK   79  A    between atoms: _187  and  _188
REMARK   80  A    between atoms: _193  and  _195
REMARK   81  A    between atoms: _195  and  _196
REMARK   82  A    between atoms: _195  and  _198
REMARK   83  A    between atoms: _201  and  _203
REMARK   84  A    between atoms: _203  and  _204
REMARK   85  A    between atoms: _203  and  _206
REMARK   86  A    between atoms: _206  and  _207
REMARK   87  A    between atoms: _212  and  _214
REMARK   88  A    between atoms: _214  and  _215
REMARK   89  A    between atoms: _214  and  _217
REMARK   90  A    between atoms: _217  and  _218
REMARK   91  A    between atoms: _221  and  _223
REMARK   92  A    between atoms: _223  and  _224
REMARK   93  A    between atoms: _223  and  _226
REMARK   94  A    between atoms: _226  and  _227
REMARK   95  A    between atoms: _230  and  _232
REMARK   96  A    between atoms: _232  and  _233
REMARK   97  A    between atoms: _235  and  _237
REMARK   98  A    between atoms: _237  and  _238
REMARK   99  A    between atoms: _237  and  _240
REMARK  100  A    between atoms: _240  and  _241
REMARK  101  A    between atoms: _241  and  _242
REMARK  102  A    between atoms: _242  and  _243
REMARK  103  A    between atoms: _252  and  _254
REMARK  104  A    between atoms: _254  and  _255
REMARK  105  A    between atoms: _254  and  _257
REMARK  106  A    between atoms: _257  and  _258
REMARK  107  A    between atoms: _263  and  _265
REMARK  108  A    between atoms: _265  and  _266
REMARK  109  A    between atoms: _265  and  _268
REMARK  110  A    between atoms: _268  and  _269
REMARK  111  A    between atoms: _269  and  _270
REMARK  112  A    between atoms: _270  and  _271
REMARK  113  A    between atoms: _280  and  _282
REMARK  114  A    between atoms: _282  and  _283
REMARK  115  A    between atoms: _282  and  _285
REMARK  116  A    between atoms: _285  and  _286
REMARK  117  A    between atoms: _289  and  _291
REMARK  118  A    between atoms: _291  and  _292
REMARK  119  A    between atoms: _291  and  _294
REMARK  120  A    between atoms: _294  and  _295
REMARK  121  A    between atoms: _298  and  _300
REMARK  122  A    between atoms: _300  and  _301
REMARK  123  A    between atoms: _300  and  _303
REMARK  124  A    between atoms: _303  and  _304
REMARK  125  A    between atoms: _307  and  _309
REMARK  126  A    between atoms: _309  and  _310
REMARK  127  A    between atoms: _309  and  _312
REMARK  128  A    between atoms: _312  and  _313
REMARK  129  A    between atoms: _316  and  _318
REMARK  130  A    between atoms: _318  and  _319
REMARK  131  A    between atoms: _321  and  _323
REMARK  132  A    between atoms: _323  and  _324
REMARK  133  A    between atoms: _327  and  _329
REMARK  134  A    between atoms: _329  and  _330
REMARK  135  A    between atoms: _329  and  _332
REMARK  136  A    between atoms: _332  and  _333
REMARK  137  A    between atoms: _336  and  _338
REMARK  138  A    between atoms: _338  and  _339
REMARK  139  A    between atoms: _338  and  _341
REMARK  140  A    between atoms: _341  and  _342
REMARK  141  A    between atoms: _345  and  _347
REMARK  142  A    between atoms: _347  and  _348
REMARK  143  A    between atoms: _347  and  _350
REMARK  144  A    between atoms: _350  and  _351
REMARK  145  A    between atoms: _354  and  _356
REMARK  146  A    between atoms: _356  and  _357
REMARK  147  A    between atoms: _356  and  _359
REMARK  148  A    between atoms: _362  and  _364
REMARK  149  A    between atoms: _364  and  _365
REMARK  150  A    between atoms: _364  and  _367
REMARK  151  A    between atoms: _367  and  _368
REMARK  152  A    between atoms: _368  and  _369
REMARK  153  A    between atoms: _369  and  _370
REMARK  154  A    between atoms: _370  and  _371
REMARK  155  A    between atoms: _375  and  _377
REMARK  156  A    between atoms: _377  and  _378
REMARK  157  A    between atoms: _377  and  _380
REMARK  158  A    between atoms: _380  and  _381
REMARK  159  A    between atoms: _381  and  _382
REMARK  160  A    between atoms: _384  and  _386
REMARK  161  A    between atoms: _386  and  _387
REMARK  162  A    between atoms: _386  and  _389
REMARK  163  A    between atoms: _389  and  _390
REMARK  164  A    between atoms: _393  and  _395
REMARK  165  A    between atoms: _395  and  _396
REMARK  166  A    between atoms: _398  and  _400
REMARK  167  A    between atoms: _400  and  _401
REMARK  168  A    between atoms: _403  and  _405
REMARK  169  A    between atoms: _405  and  _406
REMARK  170  A    between atoms: _405  and  _408
REMARK  171  A    between atoms: _408  and  _409
REMARK  172  A    between atoms: _412  and  _414
REMARK  173  A    between atoms: _414  and  _415
REMARK  174  A    between atoms: _417  and  _419
REMARK  175  A    between atoms: _419  and  _420
REMARK  176  A    between atoms: _422  and  _424
REMARK  177  A    between atoms: _424  and  _425
REMARK  178  A    between atoms: _424  and  _427
REMARK  179  A    between atoms: _427  and  _428
REMARK  180  A    between atoms: _434  and  _436
REMARK  181  A    between atoms: _436  and  _437
REMARK  182  A    between atoms: _436  and  _439
REMARK  183  A    between atoms: _439  and  _440
REMARK  184  A    between atoms: _443  and  _445
REMARK  185  A    between atoms: _445  and  _446
REMARK  186  A    between atoms: _445  and  _448
REMARK  187  A    between atoms: _448  and  _449
REMARK  188  A    between atoms: _452  and  _454
REMARK  189  A    between atoms: _454  and  _455
REMARK  190  A    between atoms: _454  and  _457
REMARK  191  A    between atoms: _457  and  _458
REMARK  192  A    between atoms: _462  and  _463
REMARK  193  A    between atoms: _468  and  _470
REMARK  194  A    between atoms: _470  and  _471
REMARK  195  A    between atoms: _470  and  _473
REMARK  196  A    between atoms: _476  and  _478
REMARK  197  A    between atoms: _478  and  _479
REMARK  198  A    between atoms: _478  and  _481
REMARK  199  A    between atoms: _481  and  _482
REMARK  200  A    between atoms: _487  and  _489
REMARK  201  A    between atoms: _489  and  _490
REMARK  202  A    between atoms: _489  and  _492
REMARK  203  A    between atoms: _492  and  _493
REMARK  204  A    between atoms: _496  and  _498
REMARK  205  A    between atoms: _498  and  _499
REMARK  206  A    between atoms: _498  and  _501
REMARK  207  A    between atoms: _501  and  _502
REMARK  208  A    between atoms: _505  and  _507
REMARK  209  A    between atoms: _507  and  _508
REMARK  210  A    between atoms: _510  and  _512
REMARK  211  A    between atoms: _512  and  _513
REMARK  212  A    between atoms: _512  and  _515
REMARK  213  A    between atoms: _515  and  _516
REMARK  214  A    between atoms: _516  and  _517
REMARK  215  A    between atoms: _517  and  _518
REMARK  216  A    between atoms: _527  and  _529
REMARK  217  A    between atoms: _529  and  _530
REMARK  218  A    between atoms: _529  and  _532
REMARK  219  A    between atoms: _532  and  _533
REMARK                            x       y       z     vdW  Elec       q    Type
REMARK                         _______ _______ _______ _____ _____    ______ ____
ROOT
ATOM      1  O   HOH     1      24.768  40.135  16.948  0.00  0.00    +0.000 OA
ENDROOT
TORSDOF 0
REMARK  Name = ../refined-set-2016/2psu/2psu_pocket.pdb
REMARK  219 active torsions:
REMARK  status: ('A' for Active; 'I' for Inactive)
REMARK    1  A    between atoms: _1  and  _3
REMARK    2  A    between atoms: _3  and  _4
REMARK    3  A    between atoms: _3  and  _6
REMARK    4  A    between atoms: _6  and  _7
REMARK    5  A    between atoms: _7  and  _8
REMARK    6  A    between atoms: _8  and  _9
REMARK    7  A    between atoms: _18  and  _20
REMARK    8  A    between atoms: _20  and  _21
REMARK    9  A    between atoms: _20  and  _23
REMARK   10  A    between atoms: _23  and  _24
REMARK   11  A    between atoms: _27  and  _29
REMARK   12  A    between atoms: _29  and  _30
REMARK   13  A    between atoms: _29  and  _32
REMARK   14  A    between atoms: _32  and  _33
REMARK   15  A    between atoms: _36  and  _38
REMARK   16  A    between atoms: _38  and  _39
REMARK   17  A    between atoms: _38  and  _41
REMARK   18  A    between atoms: _41  and  _42
REMARK   19  A    between atoms: _45  and  _47
REMARK   20  A    between atoms: _47  and  _48
REMARK   21  A    between atoms: _47  and  _50
REMARK   22  A    between atoms: _50  and  _51
REMARK   23  A    between atoms: _54  and  _56
REMARK   24  A    between atoms: _56  and  _57
REMARK   25  A    between atoms: _59  and  _61
REMARK   26  A    between atoms: _61  and  _62
REMARK   27  A    between atoms: _65  and  _67
REMARK   28  A    between atoms: _67  and  _68
REMARK   29  A    between atoms: _67  and  _70
REMARK   30  A    between atoms: _70  and  _71
REMARK   31  A    between atoms: _74  and  _76
REMARK   32  A    between atoms: _76  and  _77
REMARK   33  A    between atoms: _76  and  _79
REMARK   34  A    between atoms: _79  and  _80
REMARK   35  A    between atoms: _83  and  _85
REMARK   36  A    between atoms: _85  and  _86
REMARK   37  A    between atoms: _85  and  _88
REMARK   38  A    between atoms: _88  and  _89
REMARK   39  A    between atoms: _92  and  _94
REMARK   40  A    between atoms: _94  and  _95
REMARK   41  A    between atoms: _94  and  _97
REMARK   42  A    between atoms: _100  and  _102
REMARK   43  A    between atoms: _102  and  _103
REMARK   44  A    between atoms: _102  and  _105
REMARK   45  A    between atoms: _105  and  _106
REMARK   46  A    between atoms: _106  and  _107
REMARK   47  A    between atoms: _109  and  _111
REMARK   48  A    between atoms: _111  and  _112
REMARK   49  A    between atoms: _111  and  _114
REMARK   50  A    between atoms: _114  and  _115
REMARK   51  A    between atoms: _118  and  _120
REMARK   52  A    between atoms: _120  and  _121
REMARK   53  A    between atoms: _123  and  _125
REMARK   54  A    between atoms: _125  and  _126
REMARK   55  A    between atoms: _128  and  _130
REMARK   56  A    between atoms: _130  and  _131
REMARK   57  A    between atoms: _130  and  _133
REMARK   58  A    between atoms: _133  and  _134
REMARK   59  A    between atoms: _137  and  _139
REMARK   60  A    between atoms: _139  and  _140
REMARK   61  A    between atoms: _142  and  _144
REMARK   62  A    between atoms: _144  and  _145
REMARK   63  A    between atoms: _147  and  _149
REMARK   64  A    between atoms: _149  and  _150
REMARK   65  A    between atoms: _149  and  _152
REMARK   66  A    between atoms: _152  and  _153
REMARK   67  A    between atoms: _159  and  _161
REMARK   68  A    between atoms: _161  and  _162
REMARK   69  A    between atoms: _161  and  _164
REMARK   70  A    between atoms: _164  and  _165
REMARK   71  A    between atoms: _168  and  _170
REMARK   72  A    between atoms: _170  and  _171
REMARK   73  A    between atoms: _170  and  _173
REMARK   74  A    between atoms: _173  and  _174
REMARK   75  A    between atoms: _177  and  _179
REMARK   76  A    between atoms: _179  and  _180
REMARK   77  A    between atoms: _179  and  _182
REMARK   78  A    between atoms: _182  and  _183
REMARK   79  A    between atoms: _187  and  _188
REMARK   80  A    between atoms: _193  and  _195
REMARK   81  A    between atoms: _195  and  _196
REMARK   82  A    between atoms: _195  and  _198
REMARK   83  A    between atoms: _201  and  _203
REMARK   84  A    between atoms: _203  and  _204
REMARK   85  A    between atoms: _203  and  _206
REMARK   86  A    between atoms: _206  and  _207
REMARK   87  A    between atoms: _212  and  _214
REMARK   88  A    between atoms: _214  and  _215
REMARK   89  A    between atoms: _214  and  _217
REMARK   90  A    between atoms: _217  and  _218
REMARK   91  A    between atoms: _221  and  _223
REMARK   92  A    between atoms: _223  and  _224
REMARK   93  A    between atoms: _223  and  _226
REMARK   94  A    between atoms: _226  and  _227
REMARK   95  A    between atoms: _230  and  _232
REMARK   96  A    between atoms: _232  and  _233
REMARK   97  A    between atoms: _235  and  _237
REMARK   98  A    between atoms: _237  and  _238
REMARK   99  A    between atoms: _237  and  _240
REMARK  100  A    between atoms: _240  and  _241
REMARK  101  A    between atoms: _241  and  _242
REMARK  102  A    between atoms: _242  and  _243
REMARK  103  A    between atoms: _252  and  _254
REMARK  104  A    between atoms: _254  and  _255
REMARK  105  A    between atoms: _254  and  _257
REMARK  106  A    between atoms: _257  and  _258
REMARK  107  A    between atoms: _263  and  _265
REMARK  108  A    between atoms: _265  and  _266
REMARK  109  A    between atoms: _265  and  _268
REMARK  110  A    between atoms: _268  and  _269
REMARK  111  A    between atoms: _269  and  _270
REMARK  112  A    between atoms: _270  and  _271
REMARK  113  A    between atoms: _280  and  _282
REMARK  114  A    between atoms: _282  and  _283
REMARK  115  A    between atoms: _282  and  _285
REMARK  116  A    between atoms: _285  and  _286
REMARK  117  A    between atoms: _289  and  _291
REMARK  118  A    between atoms: _291  and  _292
REMARK  119  A    between atoms: _291  and  _294
REMARK  120  A    between atoms: _294  and  _295
REMARK  121  A    between atoms: _298  and  _300
REMARK  122  A    between atoms: _300  and  _301
REMARK  123  A    between atoms: _300  and  _303
REMARK  124  A    between atoms: _303  and  _304
REMARK  125  A    between atoms: _307  and  _309
REMARK  126  A    between atoms: _309  and  _310
REMARK  127  A    between atoms: _309  and  _312
REMARK  128  A    between atoms: _312  and  _313
REMARK  129  A    between atoms: _316  and  _318
REMARK  130  A    between atoms: _318  and  _319
REMARK  131  A    between atoms: _321  and  _323
REMARK  132  A    between atoms: _323  and  _324
REMARK  133  A    between atoms: _327  and  _329
REMARK  134  A    between atoms: _329  and  _330
REMARK  135  A    between atoms: _329  and  _332
REMARK  136  A    between atoms: _332  and  _333
REMARK  137  A    between atoms: _336  and  _338
REMARK  138  A    between atoms: _338  and  _339
REMARK  139  A    between atoms: _338  and  _341
REMARK  140  A    between atoms: _341  and  _342
REMARK  141  A    between atoms: _345  and  _347
REMARK  142  A    between atoms: _347  and  _348
REMARK  143  A    between atoms: _347  and  _350
REMARK  144  A    between atoms: _350  and  _351
REMARK  145  A    between atoms: _354  and  _356
REMARK  146  A    between atoms: _356  and  _357
REMARK  147  A    between atoms: _356  and  _359
REMARK  148  A    between atoms: _362  and  _364
REMARK  149  A    between atoms: _364  and  _365
REMARK  150  A    between atoms: _364  and  _367
REMARK  151  A    between atoms: _367  and  _368
REMARK  152  A    between atoms: _368  and  _369
REMARK  153  A    between atoms: _369  and  _370
REMARK  154  A    between atoms: _370  and  _371
REMARK  155  A    between atoms: _375  and  _377
REMARK  156  A    between atoms: _377  and  _378
REMARK  157  A    between atoms: _377  and  _380
REMARK  158  A    between atoms: _380  and  _381
REMARK  159  A    between atoms: _381  and  _382
REMARK  160  A    between atoms: _384  and  _386
REMARK  161  A    between atoms: _386  and  _387
REMARK  162  A    between atoms: _386  and  _389
REMARK  163  A    between atoms: _389  and  _390
REMARK  164  A    between atoms: _393  and  _395
REMARK  165  A    between atoms: _395  and  _396
REMARK  166  A    between atoms: _398  and  _400
REMARK  167  A    between atoms: _400  and  _401
REMARK  168  A    between atoms: _403  and  _405
REMARK  169  A    between atoms: _405  and  _406
REMARK  170  A    between atoms: _405  and  _408
REMARK  171  A    between atoms: _408  and  _409
REMARK  172  A    between atoms: _412  and  _414
REMARK  173  A    between atoms: _414  and  _415
REMARK  174  A    between atoms: _417  and  _419
REMARK  175  A    between atoms: _419  and  _420
REMARK  176  A    between atoms: _422  and  _424
REMARK  177  A    between atoms: _424  and  _425
REMARK  178  A    between atoms: _424  and  _427
REMARK  179  A    between atoms: _427  and  _428
REMARK  180  A    between atoms: _434  and  _436
REMARK  181  A    between atoms: _436  and  _437
REMARK  182  A    between atoms: _436  and  _439
REMARK  183  A    between atoms: _439  and  _440
REMARK  184  A    between atoms: _443  and  _445
REMARK  185  A    between atoms: _445  and  _446
REMARK  186  A    between atoms: _445  and  _448
REMARK  187  A    between atoms: _448  and  _449
REMARK  188  A    between atoms: _452  and  _454
REMARK  189  A    between atoms: _454  and  _455
REMARK  190  A    between atoms: _454  and  _457
REMARK  191  A    between atoms: _457  and  _458
REMARK  192  A    between atoms: _462  and  _463
REMARK  193  A    between atoms: _468  and  _470
REMARK  194  A    between atoms: _470  and  _471
REMARK  195  A    between atoms: _470  and  _473
REMARK  196  A    between atoms: _476  and  _478
REMARK  197  A    between atoms: _478  and  _479
REMARK  198  A    between atoms: _478  and  _481
REMARK  199  A    between atoms: _481  and  _482
REMARK  200  A    between atoms: _487  and  _489
REMARK  201  A    between atoms: _489  and  _490
REMARK  202  A    between atoms: _489  and  _492
REMARK  203  A    between atoms: _492  and  _493
REMARK  204  A    between atoms: _496  and  _498
REMARK  205  A    between atoms: _498  and  _499
REMARK  206  A    between atoms: _498  and  _501
REMARK  207  A    between atoms: _501  and  _502
REMARK  208  A    between atoms: _505  and  _507
REMARK  209  A    between atoms: _507  and  _508
REMARK  210  A    between atoms: _510  and  _512
REMARK  211  A    between atoms: _512  and  _513
REMARK  212  A    between atoms: _512  and  _515
REMARK  213  A    between atoms: _515  and  _516
REMARK  214  A    between atoms: _516  and  _517
REMARK  215  A    between atoms: _517  and  _518
REMARK  216  A    between atoms: _527  and  _529
REMARK  217  A    between atoms: _529  and  _530
REMARK  218  A    between atoms: _529  and  _532
REMARK  219  A    between atoms: _532  and  _533
REMARK                            x       y       z     vdW  Elec       q    Type
REMARK                         _______ _______ _______ _____ _____    ______ ____
ROOT
ATOM      1  O   HOH     1      26.164  18.520  13.510  0.00  0.00    +0.000 OA
ENDROOT
TORSDOF 0
REMARK  Name = ../refined-set-2016/2psu/2psu_pocket.pdb
REMARK  219 active torsions:
REMARK  status: ('A' for Active; 'I' for Inactive)
REMARK    1  A    between atoms: _1  and  _3
REMARK    2  A    between atoms: _3  and  _4
REMARK    3  A    between atoms: _3  and  _6
REMARK    4  A    between atoms: _6  and  _7
REMARK    5  A    between atoms: _7  and  _8
REMARK    6  A    between atoms: _8  and  _9
REMARK    7  A    between atoms: _18  and  _20
REMARK    8  A    between atoms: _20  and  _21
REMARK    9  A    between atoms: _20  and  _23
REMARK   10  A    between atoms: _23  and  _24
REMARK   11  A    between atoms: _27  and  _29
REMARK   12  A    between atoms: _29  and  _30
REMARK   13  A    between atoms: _29  and  _32
REMARK   14  A    between atoms: _32  and  _33
REMARK   15  A    between atoms: _36  and  _38
REMARK   16  A    between atoms: _38  and  _39
REMARK   17  A    between atoms: _38  and  _41
REMARK   18  A    between atoms: _41  and  _42
REMARK   19  A    between atoms: _45  and  _47
REMARK   20  A    between atoms: _47  and  _48
REMARK   21  A    between atoms: _47  and  _50
REMARK   22  A    between atoms: _50  and  _51
REMARK   23  A    between atoms: _54  and  _56
REMARK   24  A    between atoms: _56  and  _57
REMARK   25  A    between atoms: _59  and  _61
REMARK   26  A    between atoms: _61  and  _62
REMARK   27  A    between atoms: _65  and  _67
REMARK   28  A    between atoms: _67  and  _68
REMARK   29  A    between atoms: _67  and  _70
REMARK   30  A    between atoms: _70  and  _71
REMARK   31  A    between atoms: _74  and  _76
REMARK   32  A    between atoms: _76  and  _77
REMARK   33  A    between atoms: _76  and  _79
REMARK   34  A    between atoms: _79  and  _80
REMARK   35  A    between atoms: _83  and  _85
REMARK   36  A    between atoms: _85  and  _86
REMARK   37  A    between atoms: _85  and  _88
REMARK   38  A    between atoms: _88  and  _89
REMARK   39  A    between atoms: _92  and  _94
REMARK   40  A    between atoms: _94  and  _95
REMARK   41  A    between atoms: _94  and  _97
REMARK   42  A    between atoms: _100  and  _102
REMARK   43  A    between atoms: _102  and  _103
REMARK   44  A    between atoms: _102  and  _105
REMARK   45  A    between atoms: _105  and  _106
REMARK   46  A    between atoms: _106  and  _107
REMARK   47  A    between atoms: _109  and  _111
REMARK   48  A    between atoms: _111  and  _112
REMARK   49  A    between atoms: _111  and  _114
REMARK   50  A    between atoms: _114  and  _115
REMARK   51  A    between atoms: _118  and  _120
REMARK   52  A    between atoms: _120  and  _121
REMARK   53  A    between atoms: _123  and  _125
REMARK   54  A    between atoms: _125  and  _126
REMARK   55  A    between atoms: _128  and  _130
REMARK   56  A    between atoms: _130  and  _131
REMARK   57  A    between atoms: _130  and  _133
REMARK   58  A    between atoms: _133  and  _134
REMARK   59  A    between atoms: _137  and  _139
REMARK   60  A    between atoms: _139  and  _140
REMARK   61  A    between atoms: _142  and  _144
REMARK   62  A    between atoms: _144  and  _145
REMARK   63  A    between atoms: _147  and  _149
REMARK   64  A    between atoms: _149  and  _150
REMARK   65  A    between atoms: _149  and  _152
REMARK   66  A    between atoms: _152  and  _153
REMARK   67  A    between atoms: _159  and  _161
REMARK   68  A    between atoms: _161  and  _162
REMARK   69  A    between atoms: _161  and  _164
REMARK   70  A    between atoms: _164  and  _165
REMARK   71  A    between atoms: _168  and  _170
REMARK   72  A    between atoms: _170  and  _171
REMARK   73  A    between atoms: _170  and  _173
REMARK   74  A    between atoms: _173  and  _174
REMARK   75  A    between atoms: _177  and  _179
REMARK   76  A    between atoms: _179  and  _180
REMARK   77  A    between atoms: _179  and  _182
REMARK   78  A    between atoms: _182  and  _183
REMARK   79  A    between atoms: _187  and  _188
REMARK   80  A    between atoms: _193  and  _195
REMARK   81  A    between atoms: _195  and  _196
REMARK   82  A    between atoms: _195  and  _198
REMARK   83  A    between atoms: _201  and  _203
REMARK   84  A    between atoms: _203  and  _204
REMARK   85  A    between atoms: _203  and  _206
REMARK   86  A    between atoms: _206  and  _207
REMARK   87  A    between atoms: _212  and  _214
REMARK   88  A    between atoms: _214  and  _215
REMARK   89  A    between atoms: _214  and  _217
REMARK   90  A    between atoms: _217  and  _218
REMARK   91  A    between atoms: _221  and  _223
REMARK   92  A    between atoms: _223  and  _224
REMARK   93  A    between atoms: _223  and  _226
REMARK   94  A    between atoms: _226  and  _227
REMARK   95  A    between atoms: _230  and  _232
REMARK   96  A    between atoms: _232  and  _233
REMARK   97  A    between atoms: _235  and  _237
REMARK   98  A    between atoms: _237  and  _238
REMARK   99  A    between atoms: _237  and  _240
REMARK  100  A    between atoms: _240  and  _241
REMARK  101  A    between atoms: _241  and  _242
REMARK  102  A    between atoms: _242  and  _243
REMARK  103  A    between atoms: _252  and  _254
REMARK  104  A    between atoms: _254  and  _255
REMARK  105  A    between atoms: _254  and  _257
REMARK  106  A    between atoms: _257  and  _258
REMARK  107  A    between atoms: _263  and  _265
REMARK  108  A    between atoms: _265  and  _266
REMARK  109  A    between atoms: _265  and  _268
REMARK  110  A    between atoms: _268  and  _269
REMARK  111  A    between atoms: _269  and  _270
REMARK  112  A    between atoms: _270  and  _271
REMARK  113  A    between atoms: _280  and  _282
REMARK  114  A    between atoms: _282  and  _283
REMARK  115  A    between atoms: _282  and  _285
REMARK  116  A    between atoms: _285  and  _286
REMARK  117  A    between atoms: _289  and  _291
REMARK  118  A    between atoms: _291  and  _292
REMARK  119  A    between atoms: _291  and  _294
REMARK  120  A    between atoms: _294  and  _295
REMARK  121  A    between atoms: _298  and  _300
REMARK  122  A    between atoms: _300  and  _301
REMARK  123  A    between atoms: _300  and  _303
REMARK  124  A    between atoms: _303  and  _304
REMARK  125  A    between atoms: _307  and  _309
REMARK  126  A    between atoms: _309  and  _310
REMARK  127  A    between atoms: _309  and  _312
REMARK  128  A    between atoms: _312  and  _313
REMARK  129  A    between atoms: _316  and  _318
REMARK  130  A    between atoms: _318  and  _319
REMARK  131  A    between atoms: _321  and  _323
REMARK  132  A    between atoms: _323  and  _324
REMARK  133  A    between atoms: _327  and  _329
REMARK  134  A    between atoms: _329  and  _330
REMARK  135  A    between atoms: _329  and  _332
REMARK  136  A    between atoms: _332  and  _333
REMARK  137  A    between atoms: _336  and  _338
REMARK  138  A    between atoms: _338  and  _339
REMARK  139  A    between atoms: _338  and  _341
REMARK  140  A    between atoms: _341  and  _342
REMARK  141  A    between atoms: _345  and  _347
REMARK  142  A    between atoms: _347  and  _348
REMARK  143  A    between atoms: _347  and  _350
REMARK  144  A    between atoms: _350  and  _351
REMARK  145  A    between atoms: _354  and  _356
REMARK  146  A    between atoms: _356  and  _357
REMARK  147  A    between atoms: _356  and  _359
REMARK  148  A    between atoms: _362  and  _364
REMARK  149  A    between atoms: _364  and  _365
REMARK  150  A    between atoms: _364  and  _367
REMARK  151  A    between atoms: _367  and  _368
REMARK  152  A    between atoms: _368  and  _369
REMARK  153  A    between atoms: _369  and  _370
REMARK  154  A    between atoms: _370  and  _371
REMARK  155  A    between atoms: _375  and  _377
REMARK  156  A    between atoms: _377  and  _378
REMARK  157  A    between atoms: _377  and  _380
REMARK  158  A    between atoms: _380  and  _381
REMARK  159  A    between atoms: _381  and  _382
REMARK  160  A    between atoms: _384  and  _386
REMARK  161  A    between atoms: _386  and  _387
REMARK  162  A    between atoms: _386  and  _389
REMARK  163  A    between atoms: _389  and  _390
REMARK  164  A    between atoms: _393  and  _395
REMARK  165  A    between atoms: _395  and  _396
REMARK  166  A    between atoms: _398  and  _400
REMARK  167  A    between atoms: _400  and  _401
REMARK  168  A    between atoms: _403  and  _405
REMARK  169  A    between atoms: _405  and  _406
REMARK  170  A    between atoms: _405  and  _408
REMARK  171  A    between atoms: _408  and  _409
REMARK  172  A    between atoms: _412  and  _414
REMARK  173  A    between atoms: _414  and  _415
REMARK  174  A    between atoms: _417  and  _419
REMARK  175  A    between atoms: _419  and  _420
REMARK  176  A    between atoms: _422  and  _424
REMARK  177  A    between atoms: _424  and  _425
REMARK  178  A    between atoms: _424  and  _427
REMARK  179  A    between atoms: _427  and  _428
REMARK  180  A    between atoms: _434  and  _436
REMARK  181  A    between atoms: _436  and  _437
REMARK  182  A    between atoms: _436  and  _439
REMARK  183  A    between atoms: _439  and  _440
REMARK  184  A    between atoms: _443  and  _445
REMARK  185  A    between atoms: _445  and  _446
REMARK  186  A    between atoms: _445  and  _448
REMARK  187  A    between atoms: _448  and  _449
REMARK  188  A    between atoms: _452  and  _454
REMARK  189  A    between atoms: _454  and  _455
REMARK  190  A    between atoms: _454  and  _457
REMARK  191  A    between atoms: _457  and  _458
REMARK  192  A    between atoms: _462  and  _463
REMARK  193  A    between atoms: _468  and  _470
REMARK  194  A    between atoms: _470  and  _471
REMARK  195  A    between atoms: _470  and  _473
REMARK  196  A    between atoms: _476  and  _478
REMARK  197  A    between atoms: _478  and  _479
REMARK  198  A    between atoms: _478  and  _481
REMARK  199  A    between atoms: _481  and  _482
REMARK  200  A    between atoms: _487  and  _489
REMARK  201  A    between atoms: _489  and  _490
REMARK  202  A    between atoms: _489  and  _492
REMARK  203  A    between atoms: _492  and  _493
REMARK  204  A    between atoms: _496  and  _498
REMARK  205  A    between atoms: _498  and  _499
REMARK  206  A    between atoms: _498  and  _501
REMARK  207  A    between atoms: _501  and  _502
REMARK  208  A    between atoms: _505  and  _507
REMARK  209  A    between atoms: _507  and  _508
REMARK  210  A    between atoms: _510  and  _512
REMARK  211  A    between atoms: _512  and  _513
REMARK  212  A    between atoms: _512  and  _515
REMARK  213  A    between atoms: _515  and  _516
REMARK  214  A    between atoms: _516  and  _517
REMARK  215  A    between atoms: _517  and  _518
REMARK  216  A    between atoms: _527  and  _529
REMARK  217  A    between atoms: _529  and  _530
REMARK  218  A    between atoms: _529  and  _532
REMARK  219  A    between atoms: _532  and  _533
REMARK                            x       y       z     vdW  Elec       q    Type
REMARK                         _______ _______ _______ _____ _____    ______ ____
ROOT
ATOM      1  O   HOH     1      15.018  33.300   5.269  0.00  0.00    +0.000 OA
ENDROOT
TORSDOF 0
REMARK  Name = ../refined-set-2016/2psu/2psu_pocket.pdb
REMARK  219 active torsions:
REMARK  status: ('A' for Active; 'I' for Inactive)
REMARK    1  A    between atoms: _1  and  _3
REMARK    2  A    between atoms: _3  and  _4
REMARK    3  A    between atoms: _3  and  _6
REMARK    4  A    between atoms: _6  and  _7
REMARK    5  A    between atoms: _7  and  _8
REMARK    6  A    between atoms: _8  and  _9
REMARK    7  A    between atoms: _18  and  _20
REMARK    8  A    between atoms: _20  and  _21
REMARK    9  A    between atoms: _20  and  _23
REMARK   10  A    between atoms: _23  and  _24
REMARK   11  A    between atoms: _27  and  _29
REMARK   12  A    between atoms: _29  and  _30
REMARK   13  A    between atoms: _29  and  _32
REMARK   14  A    between atoms: _32  and  _33
REMARK   15  A    between atoms: _36  and  _38
REMARK   16  A    between atoms: _38  and  _39
REMARK   17  A    between atoms: _38  and  _41
REMARK   18  A    between atoms: _41  and  _42
REMARK   19  A    between atoms: _45  and  _47
REMARK   20  A    between atoms: _47  and  _48
REMARK   21  A    between atoms: _47  and  _50
REMARK   22  A    between atoms: _50  and  _51
REMARK   23  A    between atoms: _54  and  _56
REMARK   24  A    between atoms: _56  and  _57
REMARK   25  A    between atoms: _59  and  _61
REMARK   26  A    between atoms: _61  and  _62
REMARK   27  A    between atoms: _65  and  _67
REMARK   28  A    between atoms: _67  and  _68
REMARK   29  A    between atoms: _67  and  _70
REMARK   30  A    between atoms: _70  and  _71
REMARK   31  A    between atoms: _74  and  _76
REMARK   32  A    between atoms: _76  and  _77
REMARK   33  A    between atoms: _76  and  _79
REMARK   34  A    between atoms: _79  and  _80
REMARK   35  A    between atoms: _83  and  _85
REMARK   36  A    between atoms: _85  and  _86
REMARK   37  A    between atoms: _85  and  _88
REMARK   38  A    between atoms: _88  and  _89
REMARK   39  A    between atoms: _92  and  _94
REMARK   40  A    between atoms: _94  and  _95
REMARK   41  A    between atoms: _94  and  _97
REMARK   42  A    between atoms: _100  and  _102
REMARK   43  A    between atoms: _102  and  _103
REMARK   44  A    between atoms: _102  and  _105
REMARK   45  A    between atoms: _105  and  _106
REMARK   46  A    between atoms: _106  and  _107
REMARK   47  A    between atoms: _109  and  _111
REMARK   48  A    between atoms: _111  and  _112
REMARK   49  A    between atoms: _111  and  _114
REMARK   50  A    between atoms: _114  and  _115
REMARK   51  A    between atoms: _118  and  _120
REMARK   52  A    between atoms: _120  and  _121
REMARK   53  A    between atoms: _123  and  _125
REMARK   54  A    between atoms: _125  and  _126
REMARK   55  A    between atoms: _128  and  _130
REMARK   56  A    between atoms: _130  and  _131
REMARK   57  A    between atoms: _130  and  _133
REMARK   58  A    between atoms: _133  and  _134
REMARK   59  A    between atoms: _137  and  _139
REMARK   60  A    between atoms: _139  and  _140
REMARK   61  A    between atoms: _142  and  _144
REMARK   62  A    between atoms: _144  and  _145
REMARK   63  A    between atoms: _147  and  _149
REMARK   64  A    between atoms: _149  and  _150
REMARK   65  A    between atoms: _149  and  _152
REMARK   66  A    between atoms: _152  and  _153
REMARK   67  A    between atoms: _159  and  _161
REMARK   68  A    between atoms: _161  and  _162
REMARK   69  A    between atoms: _161  and  _164
REMARK   70  A    between atoms: _164  and  _165
REMARK   71  A    between atoms: _168  and  _170
REMARK   72  A    between atoms: _170  and  _171
REMARK   73  A    between atoms: _170  and  _173
REMARK   74  A    between atoms: _173  and  _174
REMARK   75  A    between atoms: _177  and  _179
REMARK   76  A    between atoms: _179  and  _180
REMARK   77  A    between atoms: _179  and  _182
REMARK   78  A    between atoms: _182  and  _183
REMARK   79  A    between atoms: _187  and  _188
REMARK   80  A    between atoms: _193  and  _195
REMARK   81  A    between atoms: _195  and  _196
REMARK   82  A    between atoms: _195  and  _198
REMARK   83  A    between atoms: _201  and  _203
REMARK   84  A    between atoms: _203  and  _204
REMARK   85  A    between atoms: _203  and  _206
REMARK   86  A    between atoms: _206  and  _207
REMARK   87  A    between atoms: _212  and  _214
REMARK   88  A    between atoms: _214  and  _215
REMARK   89  A    between atoms: _214  and  _217
REMARK   90  A    between atoms: _217  and  _218
REMARK   91  A    between atoms: _221  and  _223
REMARK   92  A    between atoms: _223  and  _224
REMARK   93  A    between atoms: _223  and  _226
REMARK   94  A    between atoms: _226  and  _227
REMARK   95  A    between atoms: _230  and  _232
REMARK   96  A    between atoms: _232  and  _233
REMARK   97  A    between atoms: _235  and  _237
REMARK   98  A    between atoms: _237  and  _238
REMARK   99  A    between atoms: _237  and  _240
REMARK  100  A    between atoms: _240  and  _241
REMARK  101  A    between atoms: _241  and  _242
REMARK  102  A    between atoms: _242  and  _243
REMARK  103  A    between atoms: _252  and  _254
REMARK  104  A    between atoms: _254  and  _255
REMARK  105  A    between atoms: _254  and  _257
REMARK  106  A    between atoms: _257  and  _258
REMARK  107  A    between atoms: _263  and  _265
REMARK  108  A    between atoms: _265  and  _266
REMARK  109  A    between atoms: _265  and  _268
REMARK  110  A    between atoms: _268  and  _269
REMARK  111  A    between atoms: _269  and  _270
REMARK  112  A    between atoms: _270  and  _271
REMARK  113  A    between atoms: _280  and  _282
REMARK  114  A    between atoms: _282  and  _283
REMARK  115  A    between atoms: _282  and  _285
REMARK  116  A    between atoms: _285  and  _286
REMARK  117  A    between atoms: _289  and  _291
REMARK  118  A    between atoms: _291  and  _292
REMARK  119  A    between atoms: _291  and  _294
REMARK  120  A    between atoms: _294  and  _295
REMARK  121  A    between atoms: _298  and  _300
REMARK  122  A    between atoms: _300  and  _301
REMARK  123  A    between atoms: _300  and  _303
REMARK  124  A    between atoms: _303  and  _304
REMARK  125  A    between atoms: _307  and  _309
REMARK  126  A    between atoms: _309  and  _310
REMARK  127  A    between atoms: _309  and  _312
REMARK  128  A    between atoms: _312  and  _313
REMARK  129  A    between atoms: _316  and  _318
REMARK  130  A    between atoms: _318  and  _319
REMARK  131  A    between atoms: _321  and  _323
REMARK  132  A    between atoms: _323  and  _324
REMARK  133  A    between atoms: _327  and  _329
REMARK  134  A    between atoms: _329  and  _330
REMARK  135  A    between atoms: _329  and  _332
REMARK  136  A    between atoms: _332  and  _333
REMARK  137  A    between atoms: _336  and  _338
REMARK  138  A    between atoms: _338  and  _339
REMARK  139  A    between atoms: _338  and  _341
REMARK  140  A    between atoms: _341  and  _342
REMARK  141  A    between atoms: _345  and  _347
REMARK  142  A    between atoms: _347  and  _348
REMARK  143  A    between atoms: _347  and  _350
REMARK  144  A    between atoms: _350  and  _351
REMARK  145  A    between atoms: _354  and  _356
REMARK  146  A    between atoms: _356  and  _357
REMARK  147  A    between atoms: _356  and  _359
REMARK  148  A    between atoms: _362  and  _364
REMARK  149  A    between atoms: _364  and  _365
REMARK  150  A    between atoms: _364  and  _367
REMARK  151  A    between atoms: _367  and  _368
REMARK  152  A    between atoms: _368  and  _369
REMARK  153  A    between atoms: _369  and  _370
REMARK  154  A    between atoms: _370  and  _371
REMARK  155  A    between atoms: _375  and  _377
REMARK  156  A    between atoms: _377  and  _378
REMARK  157  A    between atoms: _377  and  _380
REMARK  158  A    between atoms: _380  and  _381
REMARK  159  A    between atoms: _381  and  _382
REMARK  160  A    between atoms: _384  and  _386
REMARK  161  A    between atoms: _386  and  _387
REMARK  162  A    between atoms: _386  and  _389
REMARK  163  A    between atoms: _389  and  _390
REMARK  164  A    between atoms: _393  and  _395
REMARK  165  A    between atoms: _395  and  _396
REMARK  166  A    between atoms: _398  and  _400
REMARK  167  A    between atoms: _400  and  _401
REMARK  168  A    between atoms: _403  and  _405
REMARK  169  A    between atoms: _405  and  _406
REMARK  170  A    between atoms: _405  and  _408
REMARK  171  A    between atoms: _408  and  _409
REMARK  172  A    between atoms: _412  and  _414
REMARK  173  A    between atoms: _414  and  _415
REMARK  174  A    between atoms: _417  and  _419
REMARK  175  A    between atoms: _419  and  _420
REMARK  176  A    between atoms: _422  and  _424
REMARK  177  A    between atoms: _424  and  _425
REMARK  178  A    between atoms: _424  and  _427
REMARK  179  A    between atoms: _427  and  _428
REMARK  180  A    between atoms: _434  and  _436
REMARK  181  A    between atoms: _436  and  _437
REMARK  182  A    between atoms: _436  and  _439
REMARK  183  A    between atoms: _439  and  _440
REMARK  184  A    between atoms: _443  and  _445
REMARK  185  A    between atoms: _445  and  _446
REMARK  186  A    between atoms: _445  and  _448
REMARK  187  A    between atoms: _448  and  _449
REMARK  188  A    between atoms: _452  and  _454
REMARK  189  A    between atoms: _454  and  _455
REMARK  190  A    between atoms: _454  and  _457
REMARK  191  A    between atoms: _457  and  _458
REMARK  192  A    between atoms: _462  and  _463
REMARK  193  A    between atoms: _468  and  _470
REMARK  194  A    between atoms: _470  and  _471
REMARK  195  A    between atoms: _470  and  _473
REMARK  196  A    between atoms: _476  and  _478
REMARK  197  A    between atoms: _478  and  _479
REMARK  198  A    between atoms: _478  and  _481
REMARK  199  A    between atoms: _481  and  _482
REMARK  200  A    between atoms: _487  and  _489
REMARK  201  A    between atoms: _489  and  _490
REMARK  202  A    between atoms: _489  and  _492
REMARK  203  A    between atoms: _492  and  _493
REMARK  204  A    between atoms: _496  and  _498
REMARK  205  A    between atoms: _498  and  _499
REMARK  206  A    between atoms: _498  and  _501
REMARK  207  A    between atoms: _501  and  _502
REMARK  208  A    between atoms: _505  and  _507
REMARK  209  A    between atoms: _507  and  _508
REMARK  210  A    between atoms: _510  and  _512
REMARK  211  A    between atoms: _512  and  _513
REMARK  212  A    between atoms: _512  and  _515
REMARK  213  A    between atoms: _515  and  _516
REMARK  214  A    between atoms: _516  and  _517
REMARK  215  A    between atoms: _517  and  _518
REMARK  216  A    between atoms: _527  and  _529
REMARK  217  A    between atoms: _529  and  _530
REMARK  218  A    between atoms: _529  and  _532
REMARK  219  A    between atoms: _532  and  _533
REMARK                            x       y       z     vdW  Elec       q    Type
REMARK                         _______ _______ _______ _____ _____    ______ ____
ROOT
ATOM      1  O   HOH     1      18.415  28.744   5.733  0.00  0.00    +0.000 OA
ENDROOT
TORSDOF 0
REMARK  Name = ../refined-set-2016/2psu/2psu_pocket.pdb
REMARK  219 active torsions:
REMARK  status: ('A' for Active; 'I' for Inactive)
REMARK    1  A    between atoms: _1  and  _3
REMARK    2  A    between atoms: _3  and  _4
REMARK    3  A    between atoms: _3  and  _6
REMARK    4  A    between atoms: _6  and  _7
REMARK    5  A    between atoms: _7  and  _8
REMARK    6  A    between atoms: _8  and  _9
REMARK    7  A    between atoms: _18  and  _20
REMARK    8  A    between atoms: _20  and  _21
REMARK    9  A    between atoms: _20  and  _23
REMARK   10  A    between atoms: _23  and  _24
REMARK   11  A    between atoms: _27  and  _29
REMARK   12  A    between atoms: _29  and  _30
REMARK   13  A    between atoms: _29  and  _32
REMARK   14  A    between atoms: _32  and  _33
REMARK   15  A    between atoms: _36  and  _38
REMARK   16  A    between atoms: _38  and  _39
REMARK   17  A    between atoms: _38  and  _41
REMARK   18  A    between atoms: _41  and  _42
REMARK   19  A    between atoms: _45  and  _47
REMARK   20  A    between atoms: _47  and  _48
REMARK   21  A    between atoms: _47  and  _50
REMARK   22  A    between atoms: _50  and  _51
REMARK   23  A    between atoms: _54  and  _56
REMARK   24  A    between atoms: _56  and  _57
REMARK   25  A    between atoms: _59  and  _61
REMARK   26  A    between atoms: _61  and  _62
REMARK   27  A    between atoms: _65  and  _67
REMARK   28  A    between atoms: _67  and  _68
REMARK   29  A    between atoms: _67  and  _70
REMARK   30  A    between atoms: _70  and  _71
REMARK   31  A    between atoms: _74  and  _76
REMARK   32  A    between atoms: _76  and  _77
REMARK   33  A    between atoms: _76  and  _79
REMARK   34  A    between atoms: _79  and  _80
REMARK   35  A    between atoms: _83  and  _85
REMARK   36  A    between atoms: _85  and  _86
REMARK   37  A    between atoms: _85  and  _88
REMARK   38  A    between atoms: _88  and  _89
REMARK   39  A    between atoms: _92  and  _94
REMARK   40  A    between atoms: _94  and  _95
REMARK   41  A    between atoms: _94  and  _97
REMARK   42  A    between atoms: _100  and  _102
REMARK   43  A    between atoms: _102  and  _103
REMARK   44  A    between atoms: _102  and  _105
REMARK   45  A    between atoms: _105  and  _106
REMARK   46  A    between atoms: _106  and  _107
REMARK   47  A    between atoms: _109  and  _111
REMARK   48  A    between atoms: _111  and  _112
REMARK   49  A    between atoms: _111  and  _114
REMARK   50  A    between atoms: _114  and  _115
REMARK   51  A    between atoms: _118  and  _120
REMARK   52  A    between atoms: _120  and  _121
REMARK   53  A    between atoms: _123  and  _125
REMARK   54  A    between atoms: _125  and  _126
REMARK   55  A    between atoms: _128  and  _130
REMARK   56  A    between atoms: _130  and  _131
REMARK   57  A    between atoms: _130  and  _133
REMARK   58  A    between atoms: _133  and  _134
REMARK   59  A    between atoms: _137  and  _139
REMARK   60  A    between atoms: _139  and  _140
REMARK   61  A    between atoms: _142  and  _144
REMARK   62  A    between atoms: _144  and  _145
REMARK   63  A    between atoms: _147  and  _149
REMARK   64  A    between atoms: _149  and  _150
REMARK   65  A    between atoms: _149  and  _152
REMARK   66  A    between atoms: _152  and  _153
REMARK   67  A    between atoms: _159  and  _161
REMARK   68  A    between atoms: _161  and  _162
REMARK   69  A    between atoms: _161  and  _164
REMARK   70  A    between atoms: _164  and  _165
REMARK   71  A    between atoms: _168  and  _170
REMARK   72  A    between atoms: _170  and  _171
REMARK   73  A    between atoms: _170  and  _173
REMARK   74  A    between atoms: _173  and  _174
REMARK   75  A    between atoms: _177  and  _179
REMARK   76  A    between atoms: _179  and  _180
REMARK   77  A    between atoms: _179  and  _182
REMARK   78  A    between atoms: _182  and  _183
REMARK   79  A    between atoms: _187  and  _188
REMARK   80  A    between atoms: _193  and  _195
REMARK   81  A    between atoms: _195  and  _196
REMARK   82  A    between atoms: _195  and  _198
REMARK   83  A    between atoms: _201  and  _203
REMARK   84  A    between atoms: _203  and  _204
REMARK   85  A    between atoms: _203  and  _206
REMARK   86  A    between atoms: _206  and  _207
REMARK   87  A    between atoms: _212  and  _214
REMARK   88  A    between atoms: _214  and  _215
REMARK   89  A    between atoms: _214  and  _217
REMARK   90  A    between atoms: _217  and  _218
REMARK   91  A    between atoms: _221  and  _223
REMARK   92  A    between atoms: _223  and  _224
REMARK   93  A    between atoms: _223  and  _226
REMARK   94  A    between atoms: _226  and  _227
REMARK   95  A    between atoms: _230  and  _232
REMARK   96  A    between atoms: _232  and  _233
REMARK   97  A    between atoms: _235  and  _237
REMARK   98  A    between atoms: _237  and  _238
REMARK   99  A    between atoms: _237  and  _240
REMARK  100  A    between atoms: _240  and  _241
REMARK  101  A    between atoms: _241  and  _242
REMARK  102  A    between atoms: _242  and  _243
REMARK  103  A    between atoms: _252  and  _254
REMARK  104  A    between atoms: _254  and  _255
REMARK  105  A    between atoms: _254  and  _257
REMARK  106  A    between atoms: _257  and  _258
REMARK  107  A    between atoms: _263  and  _265
REMARK  108  A    between atoms: _265  and  _266
REMARK  109  A    between atoms: _265  and  _268
REMARK  110  A    between atoms: _268  and  _269
REMARK  111  A    between atoms: _269  and  _270
REMARK  112  A    between atoms: _270  and  _271
REMARK  113  A    between atoms: _280  and  _282
REMARK  114  A    between atoms: _282  and  _283
REMARK  115  A    between atoms: _282  and  _285
REMARK  116  A    between atoms: _285  and  _286
REMARK  117  A    between atoms: _289  and  _291
REMARK  118  A    between atoms: _291  and  _292
REMARK  119  A    between atoms: _291  and  _294
REMARK  120  A    between atoms: _294  and  _295
REMARK  121  A    between atoms: _298  and  _300
REMARK  122  A    between atoms: _300  and  _301
REMARK  123  A    between atoms: _300  and  _303
REMARK  124  A    between atoms: _303  and  _304
REMARK  125  A    between atoms: _307  and  _309
REMARK  126  A    between atoms: _309  and  _310
REMARK  127  A    between atoms: _309  and  _312
REMARK  128  A    between atoms: _312  and  _313
REMARK  129  A    between atoms: _316  and  _318
REMARK  130  A    between atoms: _318  and  _319
REMARK  131  A    between atoms: _321  and  _323
REMARK  132  A    between atoms: _323  and  _324
REMARK  133  A    between atoms: _327  and  _329
REMARK  134  A    between atoms: _329  and  _330
REMARK  135  A    between atoms: _329  and  _332
REMARK  136  A    between atoms: _332  and  _333
REMARK  137  A    between atoms: _336  and  _338
REMARK  138  A    between atoms: _338  and  _339
REMARK  139  A    between atoms: _338  and  _341
REMARK  140  A    between atoms: _341  and  _342
REMARK  141  A    between atoms: _345  and  _347
REMARK  142  A    between atoms: _347  and  _348
REMARK  143  A    between atoms: _347  and  _350
REMARK  144  A    between atoms: _350  and  _351
REMARK  145  A    between atoms: _354  and  _356
REMARK  146  A    between atoms: _356  and  _357
REMARK  147  A    between atoms: _356  and  _359
REMARK  148  A    between atoms: _362  and  _364
REMARK  149  A    between atoms: _364  and  _365
REMARK  150  A    between atoms: _364  and  _367
REMARK  151  A    between atoms: _367  and  _368
REMARK  152  A    between atoms: _368  and  _369
REMARK  153  A    between atoms: _369  and  _370
REMARK  154  A    between atoms: _370  and  _371
REMARK  155  A    between atoms: _375  and  _377
REMARK  156  A    between atoms: _377  and  _378
REMARK  157  A    between atoms: _377  and  _380
REMARK  158  A    between atoms: _380  and  _381
REMARK  159  A    between atoms: _381  and  _382
REMARK  160  A    between atoms: _384  and  _386
REMARK  161  A    between atoms: _386  and  _387
REMARK  162  A    between atoms: _386  and  _389
REMARK  163  A    between atoms: _389  and  _390
REMARK  164  A    between atoms: _393  and  _395
REMARK  165  A    between atoms: _395  and  _396
REMARK  166  A    between atoms: _398  and  _400
REMARK  167  A    between atoms: _400  and  _401
REMARK  168  A    between atoms: _403  and  _405
REMARK  169  A    between atoms: _405  and  _406
REMARK  170  A    between atoms: _405  and  _408
REMARK  171  A    between atoms: _408  and  _409
REMARK  172  A    between atoms: _412  and  _414
REMARK  173  A    between atoms: _414  and  _415
REMARK  174  A    between atoms: _417  and  _419
REMARK  175  A    between atoms: _419  and  _420
REMARK  176  A    between atoms: _422  and  _424
REMARK  177  A    between atoms: _424  and  _425
REMARK  178  A    between atoms: _424  and  _427
REMARK  179  A    between atoms: _427  and  _428
REMARK  180  A    between atoms: _434  and  _436
REMARK  181  A    between atoms: _436  and  _437
REMARK  182  A    between atoms: _436  and  _439
REMARK  183  A    between atoms: _439  and  _440
REMARK  184  A    between atoms: _443  and  _445
REMARK  185  A    between atoms: _445  and  _446
REMARK  186  A    between atoms: _445  and  _448
REMARK  187  A    between atoms: _448  and  _449
REMARK  188  A    between atoms: _452  and  _454
REMARK  189  A    between atoms: _454  and  _455
REMARK  190  A    between atoms: _454  and  _457
REMARK  191  A    between atoms: _457  and  _458
REMARK  192  A    between atoms: _462  and  _463
REMARK  193  A    between atoms: _468  and  _470
REMARK  194  A    between atoms: _470  and  _471
REMARK  195  A    between atoms: _470  and  _473
REMARK  196  A    between atoms: _476  and  _478
REMARK  197  A    between atoms: _478  and  _479
REMARK  198  A    between atoms: _478  and  _481
REMARK  199  A    between atoms: _481  and  _482
REMARK  200  A    between atoms: _487  and  _489
REMARK  201  A    between atoms: _489  and  _490
REMARK  202  A    between atoms: _489  and  _492
REMARK  203  A    between atoms: _492  and  _493
REMARK  204  A    between atoms: _496  and  _498
REMARK  205  A    between atoms: _498  and  _499
REMARK  206  A    between atoms: _498  and  _501
REMARK  207  A    between atoms: _501  and  _502
REMARK  208  A    between atoms: _505  and  _507
REMARK  209  A    between atoms: _507  and  _508
REMARK  210  A    between atoms: _510  and  _512
REMARK  211  A    between atoms: _512  and  _513
REMARK  212  A    between atoms: _512  and  _515
REMARK  213  A    between atoms: _515  and  _516
REMARK  214  A    between atoms: _516  and  _517
REMARK  215  A    between atoms: _517  and  _518
REMARK  216  A    between atoms: _527  and  _529
REMARK  217  A    between atoms: _529  and  _530
REMARK  218  A    between atoms: _529  and  _532
REMARK  219  A    between atoms: _532  and  _533
REMARK                            x       y       z     vdW  Elec       q    Type
REMARK                         _______ _______ _______ _____ _____    ______ ____
ROOT
ATOM      1  O   HOH     1      30.348  21.021  11.008  0.00  0.00    +0.000 OA
ENDROOT
TORSDOF 0
REMARK  Name = ../refined-set-2016/2psu/2psu_pocket.pdb
REMARK  219 active torsions:
REMARK  status: ('A' for Active; 'I' for Inactive)
REMARK    1  A    between atoms: _1  and  _3
REMARK    2  A    between atoms: _3  and  _4
REMARK    3  A    between atoms: _3  and  _6
REMARK    4  A    between atoms: _6  and  _7
REMARK    5  A    between atoms: _7  and  _8
REMARK    6  A    between atoms: _8  and  _9
REMARK    7  A    between atoms: _18  and  _20
REMARK    8  A    between atoms: _20  and  _21
REMARK    9  A    between atoms: _20  and  _23
REMARK   10  A    between atoms: _23  and  _24
REMARK   11  A    between atoms: _27  and  _29
REMARK   12  A    between atoms: _29  and  _30
REMARK   13  A    between atoms: _29  and  _32
REMARK   14  A    between atoms: _32  and  _33
REMARK   15  A    between atoms: _36  and  _38
REMARK   16  A    between atoms: _38  and  _39
REMARK   17  A    between atoms: _38  and  _41
REMARK   18  A    between atoms: _41  and  _42
REMARK   19  A    between atoms: _45  and  _47
REMARK   20  A    between atoms: _47  and  _48
REMARK   21  A    between atoms: _47  and  _50
REMARK   22  A    between atoms: _50  and  _51
REMARK   23  A    between atoms: _54  and  _56
REMARK   24  A    between atoms: _56  and  _57
REMARK   25  A    between atoms: _59  and  _61
REMARK   26  A    between atoms: _61  and  _62
REMARK   27  A    between atoms: _65  and  _67
REMARK   28  A    between atoms: _67  and  _68
REMARK   29  A    between atoms: _67  and  _70
REMARK   30  A    between atoms: _70  and  _71
REMARK   31  A    between atoms: _74  and  _76
REMARK   32  A    between atoms: _76  and  _77
REMARK   33  A    between atoms: _76  and  _79
REMARK   34  A    between atoms: _79  and  _80
REMARK   35  A    between atoms: _83  and  _85
REMARK   36  A    between atoms: _85  and  _86
REMARK   37  A    between atoms: _85  and  _88
REMARK   38  A    between atoms: _88  and  _89
REMARK   39  A    between atoms: _92  and  _94
REMARK   40  A    between atoms: _94  and  _95
REMARK   41  A    between atoms: _94  and  _97
REMARK   42  A    between atoms: _100  and  _102
REMARK   43  A    between atoms: _102  and  _103
REMARK   44  A    between atoms: _102  and  _105
REMARK   45  A    between atoms: _105  and  _106
REMARK   46  A    between atoms: _106  and  _107
REMARK   47  A    between atoms: _109  and  _111
REMARK   48  A    between atoms: _111  and  _112
REMARK   49  A    between atoms: _111  and  _114
REMARK   50  A    between atoms: _114  and  _115
REMARK   51  A    between atoms: _118  and  _120
REMARK   52  A    between atoms: _120  and  _121
REMARK   53  A    between atoms: _123  and  _125
REMARK   54  A    between atoms: _125  and  _126
REMARK   55  A    between atoms: _128  and  _130
REMARK   56  A    between atoms: _130  and  _131
REMARK   57  A    between atoms: _130  and  _133
REMARK   58  A    between atoms: _133  and  _134
REMARK   59  A    between atoms: _137  and  _139
REMARK   60  A    between atoms: _139  and  _140
REMARK   61  A    between atoms: _142  and  _144
REMARK   62  A    between atoms: _144  and  _145
REMARK   63  A    between atoms: _147  and  _149
REMARK   64  A    between atoms: _149  and  _150
REMARK   65  A    between atoms: _149  and  _152
REMARK   66  A    between atoms: _152  and  _153
REMARK   67  A    between atoms: _159  and  _161
REMARK   68  A    between atoms: _161  and  _162
REMARK   69  A    between atoms: _161  and  _164
REMARK   70  A    between atoms: _164  and  _165
REMARK   71  A    between atoms: _168  and  _170
REMARK   72  A    between atoms: _170  and  _171
REMARK   73  A    between atoms: _170  and  _173
REMARK   74  A    between atoms: _173  and  _174
REMARK   75  A    between atoms: _177  and  _179
REMARK   76  A    between atoms: _179  and  _180
REMARK   77  A    between atoms: _179  and  _182
REMARK   78  A    between atoms: _182  and  _183
REMARK   79  A    between atoms: _187  and  _188
REMARK   80  A    between atoms: _193  and  _195
REMARK   81  A    between atoms: _195  and  _196
REMARK   82  A    between atoms: _195  and  _198
REMARK   83  A    between atoms: _201  and  _203
REMARK   84  A    between atoms: _203  and  _204
REMARK   85  A    between atoms: _203  and  _206
REMARK   86  A    between atoms: _206  and  _207
REMARK   87  A    between atoms: _212  and  _214
REMARK   88  A    between atoms: _214  and  _215
REMARK   89  A    between atoms: _214  and  _217
REMARK   90  A    between atoms: _217  and  _218
REMARK   91  A    between atoms: _221  and  _223
REMARK   92  A    between atoms: _223  and  _224
REMARK   93  A    between atoms: _223  and  _226
REMARK   94  A    between atoms: _226  and  _227
REMARK   95  A    between atoms: _230  and  _232
REMARK   96  A    between atoms: _232  and  _233
REMARK   97  A    between atoms: _235  and  _237
REMARK   98  A    between atoms: _237  and  _238
REMARK   99  A    between atoms: _237  and  _240
REMARK  100  A    between atoms: _240  and  _241
REMARK  101  A    between atoms: _241  and  _242
REMARK  102  A    between atoms: _242  and  _243
REMARK  103  A    between atoms: _252  and  _254
REMARK  104  A    between atoms: _254  and  _255
REMARK  105  A    between atoms: _254  and  _257
REMARK  106  A    between atoms: _257  and  _258
REMARK  107  A    between atoms: _263  and  _265
REMARK  108  A    between atoms: _265  and  _266
REMARK  109  A    between atoms: _265  and  _268
REMARK  110  A    between atoms: _268  and  _269
REMARK  111  A    between atoms: _269  and  _270
REMARK  112  A    between atoms: _270  and  _271
REMARK  113  A    between atoms: _280  and  _282
REMARK  114  A    between atoms: _282  and  _283
REMARK  115  A    between atoms: _282  and  _285
REMARK  116  A    between atoms: _285  and  _286
REMARK  117  A    between atoms: _289  and  _291
REMARK  118  A    between atoms: _291  and  _292
REMARK  119  A    between atoms: _291  and  _294
REMARK  120  A    between atoms: _294  and  _295
REMARK  121  A    between atoms: _298  and  _300
REMARK  122  A    between atoms: _300  and  _301
REMARK  123  A    between atoms: _300  and  _303
REMARK  124  A    between atoms: _303  and  _304
REMARK  125  A    between atoms: _307  and  _309
REMARK  126  A    between atoms: _309  and  _310
REMARK  127  A    between atoms: _309  and  _312
REMARK  128  A    between atoms: _312  and  _313
REMARK  129  A    between atoms: _316  and  _318
REMARK  130  A    between atoms: _318  and  _319
REMARK  131  A    between atoms: _321  and  _323
REMARK  132  A    between atoms: _323  and  _324
REMARK  133  A    between atoms: _327  and  _329
REMARK  134  A    between atoms: _329  and  _330
REMARK  135  A    between atoms: _329  and  _332
REMARK  136  A    between atoms: _332  and  _333
REMARK  137  A    between atoms: _336  and  _338
REMARK  138  A    between atoms: _338  and  _339
REMARK  139  A    between atoms: _338  and  _341
REMARK  140  A    between atoms: _341  and  _342
REMARK  141  A    between atoms: _345  and  _347
REMARK  142  A    between atoms: _347  and  _348
REMARK  143  A    between atoms: _347  and  _350
REMARK  144  A    between atoms: _350  and  _351
REMARK  145  A    between atoms: _354  and  _356
REMARK  146  A    between atoms: _356  and  _357
REMARK  147  A    between atoms: _356  and  _359
REMARK  148  A    between atoms: _362  and  _364
REMARK  149  A    between atoms: _364  and  _365
REMARK  150  A    between atoms: _364  and  _367
REMARK  151  A    between atoms: _367  and  _368
REMARK  152  A    between atoms: _368  and  _369
REMARK  153  A    between atoms: _369  and  _370
REMARK  154  A    between atoms: _370  and  _371
REMARK  155  A    between atoms: _375  and  _377
REMARK  156  A    between atoms: _377  and  _378
REMARK  157  A    between atoms: _377  and  _380
REMARK  158  A    between atoms: _380  and  _381
REMARK  159  A    between atoms: _381  and  _382
REMARK  160  A    between atoms: _384  and  _386
REMARK  161  A    between atoms: _386  and  _387
REMARK  162  A    between atoms: _386  and  _389
REMARK  163  A    between atoms: _389  and  _390
REMARK  164  A    between atoms: _393  and  _395
REMARK  165  A    between atoms: _395  and  _396
REMARK  166  A    between atoms: _398  and  _400
REMARK  167  A    between atoms: _400  and  _401
REMARK  168  A    between atoms: _403  and  _405
REMARK  169  A    between atoms: _405  and  _406
REMARK  170  A    between atoms: _405  and  _408
REMARK  171  A    between atoms: _408  and  _409
REMARK  172  A    between atoms: _412  and  _414
REMARK  173  A    between atoms: _414  and  _415
REMARK  174  A    between atoms: _417  and  _419
REMARK  175  A    between atoms: _419  and  _420
REMARK  176  A    between atoms: _422  and  _424
REMARK  177  A    between atoms: _424  and  _425
REMARK  178  A    between atoms: _424  and  _427
REMARK  179  A    between atoms: _427  and  _428
REMARK  180  A    between atoms: _434  and  _436
REMARK  181  A    between atoms: _436  and  _437
REMARK  182  A    between atoms: _436  and  _439
REMARK  183  A    between atoms: _439  and  _440
REMARK  184  A    between atoms: _443  and  _445
REMARK  185  A    between atoms: _445  and  _446
REMARK  186  A    between atoms: _445  and  _448
REMARK  187  A    between atoms: _448  and  _449
REMARK  188  A    between atoms: _452  and  _454
REMARK  189  A    between atoms: _454  and  _455
REMARK  190  A    between atoms: _454  and  _457
REMARK  191  A    between atoms: _457  and  _458
REMARK  192  A    between atoms: _462  and  _463
REMARK  193  A    between atoms: _468  and  _470
REMARK  194  A    between atoms: _470  and  _471
REMARK  195  A    between atoms: _470  and  _473
REMARK  196  A    between atoms: _476  and  _478
REMARK  197  A    between atoms: _478  and  _479
REMARK  198  A    between atoms: _478  and  _481
REMARK  199  A    between atoms: _481  and  _482
REMARK  200  A    between atoms: _487  and  _489
REMARK  201  A    between atoms: _489  and  _490
REMARK  202  A    between atoms: _489  and  _492
REMARK  203  A    between atoms: _492  and  _493
REMARK  204  A    between atoms: _496  and  _498
REMARK  205  A    between atoms: _498  and  _499
REMARK  206  A    between atoms: _498  and  _501
REMARK  207  A    between atoms: _501  and  _502
REMARK  208  A    between atoms: _505  and  _507
REMARK  209  A    between atoms: _507  and  _508
REMARK  210  A    between atoms: _510  and  _512
REMARK  211  A    between atoms: _512  and  _513
REMARK  212  A    between atoms: _512  and  _515
REMARK  213  A    between atoms: _515  and  _516
REMARK  214  A    between atoms: _516  and  _517
REMARK  215  A    between atoms: _517  and  _518
REMARK  216  A    between atoms: _527  and  _529
REMARK  217  A    between atoms: _529  and  _530
REMARK  218  A    between atoms: _529  and  _532
REMARK  219  A    between atoms: _532  and  _533
REMARK                            x       y       z     vdW  Elec       q    Type
REMARK                         _______ _______ _______ _____ _____    ______ ____
ROOT
ATOM      1  O   HOH     1      30.582  21.379   8.182  0.00  0.00    +0.000 OA
ENDROOT
TORSDOF 0
REMARK  Name = ../refined-set-2016/2psu/2psu_pocket.pdb
REMARK  219 active torsions:
REMARK  status: ('A' for Active; 'I' for Inactive)
REMARK    1  A    between atoms: _1  and  _3
REMARK    2  A    between atoms: _3  and  _4
REMARK    3  A    between atoms: _3  and  _6
REMARK    4  A    between atoms: _6  and  _7
REMARK    5  A    between atoms: _7  and  _8
REMARK    6  A    between atoms: _8  and  _9
REMARK    7  A    between atoms: _18  and  _20
REMARK    8  A    between atoms: _20  and  _21
REMARK    9  A    between atoms: _20  and  _23
REMARK   10  A    between atoms: _23  and  _24
REMARK   11  A    between atoms: _27  and  _29
REMARK   12  A    between atoms: _29  and  _30
REMARK   13  A    between atoms: _29  and  _32
REMARK   14  A    between atoms: _32  and  _33
REMARK   15  A    between atoms: _36  and  _38
REMARK   16  A    between atoms: _38  and  _39
REMARK   17  A    between atoms: _38  and  _41
REMARK   18  A    between atoms: _41  and  _42
REMARK   19  A    between atoms: _45  and  _47
REMARK   20  A    between atoms: _47  and  _48
REMARK   21  A    between atoms: _47  and  _50
REMARK   22  A    between atoms: _50  and  _51
REMARK   23  A    between atoms: _54  and  _56
REMARK   24  A    between atoms: _56  and  _57
REMARK   25  A    between atoms: _59  and  _61
REMARK   26  A    between atoms: _61  and  _62
REMARK   27  A    between atoms: _65  and  _67
REMARK   28  A    between atoms: _67  and  _68
REMARK   29  A    between atoms: _67  and  _70
REMARK   30  A    between atoms: _70  and  _71
REMARK   31  A    between atoms: _74  and  _76
REMARK   32  A    between atoms: _76  and  _77
REMARK   33  A    between atoms: _76  and  _79
REMARK   34  A    between atoms: _79  and  _80
REMARK   35  A    between atoms: _83  and  _85
REMARK   36  A    between atoms: _85  and  _86
REMARK   37  A    between atoms: _85  and  _88
REMARK   38  A    between atoms: _88  and  _89
REMARK   39  A    between atoms: _92  and  _94
REMARK   40  A    between atoms: _94  and  _95
REMARK   41  A    between atoms: _94  and  _97
REMARK   42  A    between atoms: _100  and  _102
REMARK   43  A    between atoms: _102  and  _103
REMARK   44  A    between atoms: _102  and  _105
REMARK   45  A    between atoms: _105  and  _106
REMARK   46  A    between atoms: _106  and  _107
REMARK   47  A    between atoms: _109  and  _111
REMARK   48  A    between atoms: _111  and  _112
REMARK   49  A    between atoms: _111  and  _114
REMARK   50  A    between atoms: _114  and  _115
REMARK   51  A    between atoms: _118  and  _120
REMARK   52  A    between atoms: _120  and  _121
REMARK   53  A    between atoms: _123  and  _125
REMARK   54  A    between atoms: _125  and  _126
REMARK   55  A    between atoms: _128  and  _130
REMARK   56  A    between atoms: _130  and  _131
REMARK   57  A    between atoms: _130  and  _133
REMARK   58  A    between atoms: _133  and  _134
REMARK   59  A    between atoms: _137  and  _139
REMARK   60  A    between atoms: _139  and  _140
REMARK   61  A    between atoms: _142  and  _144
REMARK   62  A    between atoms: _144  and  _145
REMARK   63  A    between atoms: _147  and  _149
REMARK   64  A    between atoms: _149  and  _150
REMARK   65  A    between atoms: _149  and  _152
REMARK   66  A    between atoms: _152  and  _153
REMARK   67  A    between atoms: _159  and  _161
REMARK   68  A    between atoms: _161  and  _162
REMARK   69  A    between atoms: _161  and  _164
REMARK   70  A    between atoms: _164  and  _165
REMARK   71  A    between atoms: _168  and  _170
REMARK   72  A    between atoms: _170  and  _171
REMARK   73  A    between atoms: _170  and  _173
REMARK   74  A    between atoms: _173  and  _174
REMARK   75  A    between atoms: _177  and  _179
REMARK   76  A    between atoms: _179  and  _180
REMARK   77  A    between atoms: _179  and  _182
REMARK   78  A    between atoms: _182  and  _183
REMARK   79  A    between atoms: _187  and  _188
REMARK   80  A    between atoms: _193  and  _195
REMARK   81  A    between atoms: _195  and  _196
REMARK   82  A    between atoms: _195  and  _198
REMARK   83  A    between atoms: _201  and  _203
REMARK   84  A    between atoms: _203  and  _204
REMARK   85  A    between atoms: _203  and  _206
REMARK   86  A    between atoms: _206  and  _207
REMARK   87  A    between atoms: _212  and  _214
REMARK   88  A    between atoms: _214  and  _215
REMARK   89  A    between atoms: _214  and  _217
REMARK   90  A    between atoms: _217  and  _218
REMARK   91  A    between atoms: _221  and  _223
REMARK   92  A    between atoms: _223  and  _224
REMARK   93  A    between atoms: _223  and  _226
REMARK   94  A    between atoms: _226  and  _227
REMARK   95  A    between atoms: _230  and  _232
REMARK   96  A    between atoms: _232  and  _233
REMARK   97  A    between atoms: _235  and  _237
REMARK   98  A    between atoms: _237  and  _238
REMARK   99  A    between atoms: _237  and  _240
REMARK  100  A    between atoms: _240  and  _241
REMARK  101  A    between atoms: _241  and  _242
REMARK  102  A    between atoms: _242  and  _243
REMARK  103  A    between atoms: _252  and  _254
REMARK  104  A    between atoms: _254  and  _255
REMARK  105  A    between atoms: _254  and  _257
REMARK  106  A    between atoms: _257  and  _258
REMARK  107  A    between atoms: _263  and  _265
REMARK  108  A    between atoms: _265  and  _266
REMARK  109  A    between atoms: _265  and  _268
REMARK  110  A    between atoms: _268  and  _269
REMARK  111  A    between atoms: _269  and  _270
REMARK  112  A    between atoms: _270  and  _271
REMARK  113  A    between atoms: _280  and  _282
REMARK  114  A    between atoms: _282  and  _283
REMARK  115  A    between atoms: _282  and  _285
REMARK  116  A    between atoms: _285  and  _286
REMARK  117  A    between atoms: _289  and  _291
REMARK  118  A    between atoms: _291  and  _292
REMARK  119  A    between atoms: _291  and  _294
REMARK  120  A    between atoms: _294  and  _295
REMARK  121  A    between atoms: _298  and  _300
REMARK  122  A    between atoms: _300  and  _301
REMARK  123  A    between atoms: _300  and  _303
REMARK  124  A    between atoms: _303  and  _304
REMARK  125  A    between atoms: _307  and  _309
REMARK  126  A    between atoms: _309  and  _310
REMARK  127  A    between atoms: _309  and  _312
REMARK  128  A    between atoms: _312  and  _313
REMARK  129  A    between atoms: _316  and  _318
REMARK  130  A    between atoms: _318  and  _319
REMARK  131  A    between atoms: _321  and  _323
REMARK  132  A    between atoms: _323  and  _324
REMARK  133  A    between atoms: _327  and  _329
REMARK  134  A    between atoms: _329  and  _330
REMARK  135  A    between atoms: _329  and  _332
REMARK  136  A    between atoms: _332  and  _333
REMARK  137  A    between atoms: _336  and  _338
REMARK  138  A    between atoms: _338  and  _339
REMARK  139  A    between atoms: _338  and  _341
REMARK  140  A    between atoms: _341  and  _342
REMARK  141  A    between atoms: _345  and  _347
REMARK  142  A    between atoms: _347  and  _348
REMARK  143  A    between atoms: _347  and  _350
REMARK  144  A    between atoms: _350  and  _351
REMARK  145  A    between atoms: _354  and  _356
REMARK  146  A    between atoms: _356  and  _357
REMARK  147  A    between atoms: _356  and  _359
REMARK  148  A    between atoms: _362  and  _364
REMARK  149  A    between atoms: _364  and  _365
REMARK  150  A    between atoms: _364  and  _367
REMARK  151  A    between atoms: _367  and  _368
REMARK  152  A    between atoms: _368  and  _369
REMARK  153  A    between atoms: _369  and  _370
REMARK  154  A    between atoms: _370  and  _371
REMARK  155  A    between atoms: _375  and  _377
REMARK  156  A    between atoms: _377  and  _378
REMARK  157  A    between atoms: _377  and  _380
REMARK  158  A    between atoms: _380  and  _381
REMARK  159  A    between atoms: _381  and  _382
REMARK  160  A    between atoms: _384  and  _386
REMARK  161  A    between atoms: _386  and  _387
REMARK  162  A    between atoms: _386  and  _389
REMARK  163  A    between atoms: _389  and  _390
REMARK  164  A    between atoms: _393  and  _395
REMARK  165  A    between atoms: _395  and  _396
REMARK  166  A    between atoms: _398  and  _400
REMARK  167  A    between atoms: _400  and  _401
REMARK  168  A    between atoms: _403  and  _405
REMARK  169  A    between atoms: _405  and  _406
REMARK  170  A    between atoms: _405  and  _408
REMARK  171  A    between atoms: _408  and  _409
REMARK  172  A    between atoms: _412  and  _414
REMARK  173  A    between atoms: _414  and  _415
REMARK  174  A    between atoms: _417  and  _419
REMARK  175  A    between atoms: _419  and  _420
REMARK  176  A    between atoms: _422  and  _424
REMARK  177  A    between atoms: _424  and  _425
REMARK  178  A    between atoms: _424  and  _427
REMARK  179  A    between atoms: _427  and  _428
REMARK  180  A    between atoms: _434  and  _436
REMARK  181  A    between atoms: _436  and  _437
REMARK  182  A    between atoms: _436  and  _439
REMARK  183  A    between atoms: _439  and  _440
REMARK  184  A    between atoms: _443  and  _445
REMARK  185  A    between atoms: _445  and  _446
REMARK  186  A    between atoms: _445  and  _448
REMARK  187  A    between atoms: _448  and  _449
REMARK  188  A    between atoms: _452  and  _454
REMARK  189  A    between atoms: _454  and  _455
REMARK  190  A    between atoms: _454  and  _457
REMARK  191  A    between atoms: _457  and  _458
REMARK  192  A    between atoms: _462  and  _463
REMARK  193  A    between atoms: _468  and  _470
REMARK  194  A    between atoms: _470  and  _471
REMARK  195  A    between atoms: _470  and  _473
REMARK  196  A    between atoms: _476  and  _478
REMARK  197  A    between atoms: _478  and  _479
REMARK  198  A    between atoms: _478  and  _481
REMARK  199  A    between atoms: _481  and  _482
REMARK  200  A    between atoms: _487  and  _489
REMARK  201  A    between atoms: _489  and  _490
REMARK  202  A    between atoms: _489  and  _492
REMARK  203  A    between atoms: _492  and  _493
REMARK  204  A    between atoms: _496  and  _498
REMARK  205  A    between atoms: _498  and  _499
REMARK  206  A    between atoms: _498  and  _501
REMARK  207  A    between atoms: _501  and  _502
REMARK  208  A    between atoms: _505  and  _507
REMARK  209  A    between atoms: _507  and  _508
REMARK  210  A    between atoms: _510  and  _512
REMARK  211  A    between atoms: _512  and  _513
REMARK  212  A    between atoms: _512  and  _515
REMARK  213  A    between atoms: _515  and  _516
REMARK  214  A    between atoms: _516  and  _517
REMARK  215  A    between atoms: _517  and  _518
REMARK  216  A    between atoms: _527  and  _529
REMARK  217  A    between atoms: _529  and  _530
REMARK  218  A    between atoms: _529  and  _532
REMARK  219  A    between atoms: _532  and  _533
REMARK                            x       y       z     vdW  Elec       q    Type
REMARK                         _______ _______ _______ _____ _____    ______ ____
ROOT
ATOM      1  O   HOH     1      26.807  19.639   9.527  0.00  0.00    +0.000 OA
ENDROOT
TORSDOF 0
REMARK  Name = ../refined-set-2016/2psu/2psu_pocket.pdb
REMARK  219 active torsions:
REMARK  status: ('A' for Active; 'I' for Inactive)
REMARK    1  A    between atoms: _1  and  _3
REMARK    2  A    between atoms: _3  and  _4
REMARK    3  A    between atoms: _3  and  _6
REMARK    4  A    between atoms: _6  and  _7
REMARK    5  A    between atoms: _7  and  _8
REMARK    6  A    between atoms: _8  and  _9
REMARK    7  A    between atoms: _18  and  _20
REMARK    8  A    between atoms: _20  and  _21
REMARK    9  A    between atoms: _20  and  _23
REMARK   10  A    between atoms: _23  and  _24
REMARK   11  A    between atoms: _27  and  _29
REMARK   12  A    between atoms: _29  and  _30
REMARK   13  A    between atoms: _29  and  _32
REMARK   14  A    between atoms: _32  and  _33
REMARK   15  A    between atoms: _36  and  _38
REMARK   16  A    between atoms: _38  and  _39
REMARK   17  A    between atoms: _38  and  _41
REMARK   18  A    between atoms: _41  and  _42
REMARK   19  A    between atoms: _45  and  _47
REMARK   20  A    between atoms: _47  and  _48
REMARK   21  A    between atoms: _47  and  _50
REMARK   22  A    between atoms: _50  and  _51
REMARK   23  A    between atoms: _54  and  _56
REMARK   24  A    between atoms: _56  and  _57
REMARK   25  A    between atoms: _59  and  _61
REMARK   26  A    between atoms: _61  and  _62
REMARK   27  A    between atoms: _65  and  _67
REMARK   28  A    between atoms: _67  and  _68
REMARK   29  A    between atoms: _67  and  _70
REMARK   30  A    between atoms: _70  and  _71
REMARK   31  A    between atoms: _74  and  _76
REMARK   32  A    between atoms: _76  and  _77
REMARK   33  A    between atoms: _76  and  _79
REMARK   34  A    between atoms: _79  and  _80
REMARK   35  A    between atoms: _83  and  _85
REMARK   36  A    between atoms: _85  and  _86
REMARK   37  A    between atoms: _85  and  _88
REMARK   38  A    between atoms: _88  and  _89
REMARK   39  A    between atoms: _92  and  _94
REMARK   40  A    between atoms: _94  and  _95
REMARK   41  A    between atoms: _94  and  _97
REMARK   42  A    between atoms: _100  and  _102
REMARK   43  A    between atoms: _102  and  _103
REMARK   44  A    between atoms: _102  and  _105
REMARK   45  A    between atoms: _105  and  _106
REMARK   46  A    between atoms: _106  and  _107
REMARK   47  A    between atoms: _109  and  _111
REMARK   48  A    between atoms: _111  and  _112
REMARK   49  A    between atoms: _111  and  _114
REMARK   50  A    between atoms: _114  and  _115
REMARK   51  A    between atoms: _118  and  _120
REMARK   52  A    between atoms: _120  and  _121
REMARK   53  A    between atoms: _123  and  _125
REMARK   54  A    between atoms: _125  and  _126
REMARK   55  A    between atoms: _128  and  _130
REMARK   56  A    between atoms: _130  and  _131
REMARK   57  A    between atoms: _130  and  _133
REMARK   58  A    between atoms: _133  and  _134
REMARK   59  A    between atoms: _137  and  _139
REMARK   60  A    between atoms: _139  and  _140
REMARK   61  A    between atoms: _142  and  _144
REMARK   62  A    between atoms: _144  and  _145
REMARK   63  A    between atoms: _147  and  _149
REMARK   64  A    between atoms: _149  and  _150
REMARK   65  A    between atoms: _149  and  _152
REMARK   66  A    between atoms: _152  and  _153
REMARK   67  A    between atoms: _159  and  _161
REMARK   68  A    between atoms: _161  and  _162
REMARK   69  A    between atoms: _161  and  _164
REMARK   70  A    between atoms: _164  and  _165
REMARK   71  A    between atoms: _168  and  _170
REMARK   72  A    between atoms: _170  and  _171
REMARK   73  A    between atoms: _170  and  _173
REMARK   74  A    between atoms: _173  and  _174
REMARK   75  A    between atoms: _177  and  _179
REMARK   76  A    between atoms: _179  and  _180
REMARK   77  A    between atoms: _179  and  _182
REMARK   78  A    between atoms: _182  and  _183
REMARK   79  A    between atoms: _187  and  _188
REMARK   80  A    between atoms: _193  and  _195
REMARK   81  A    between atoms: _195  and  _196
REMARK   82  A    between atoms: _195  and  _198
REMARK   83  A    between atoms: _201  and  _203
REMARK   84  A    between atoms: _203  and  _204
REMARK   85  A    between atoms: _203  and  _206
REMARK   86  A    between atoms: _206  and  _207
REMARK   87  A    between atoms: _212  and  _214
REMARK   88  A    between atoms: _214  and  _215
REMARK   89  A    between atoms: _214  and  _217
REMARK   90  A    between atoms: _217  and  _218
REMARK   91  A    between atoms: _221  and  _223
REMARK   92  A    between atoms: _223  and  _224
REMARK   93  A    between atoms: _223  and  _226
REMARK   94  A    between atoms: _226  and  _227
REMARK   95  A    between atoms: _230  and  _232
REMARK   96  A    between atoms: _232  and  _233
REMARK   97  A    between atoms: _235  and  _237
REMARK   98  A    between atoms: _237  and  _238
REMARK   99  A    between atoms: _237  and  _240
REMARK  100  A    between atoms: _240  and  _241
REMARK  101  A    between atoms: _241  and  _242
REMARK  102  A    between atoms: _242  and  _243
REMARK  103  A    between atoms: _252  and  _254
REMARK  104  A    between atoms: _254  and  _255
REMARK  105  A    between atoms: _254  and  _257
REMARK  106  A    between atoms: _257  and  _258
REMARK  107  A    between atoms: _263  and  _265
REMARK  108  A    between atoms: _265  and  _266
REMARK  109  A    between atoms: _265  and  _268
REMARK  110  A    between atoms: _268  and  _269
REMARK  111  A    between atoms: _269  and  _270
REMARK  112  A    between atoms: _270  and  _271
REMARK  113  A    between atoms: _280  and  _282
REMARK  114  A    between atoms: _282  and  _283
REMARK  115  A    between atoms: _282  and  _285
REMARK  116  A    between atoms: _285  and  _286
REMARK  117  A    between atoms: _289  and  _291
REMARK  118  A    between atoms: _291  and  _292
REMARK  119  A    between atoms: _291  and  _294
REMARK  120  A    between atoms: _294  and  _295
REMARK  121  A    between atoms: _298  and  _300
REMARK  122  A    between atoms: _300  and  _301
REMARK  123  A    between atoms: _300  and  _303
REMARK  124  A    between atoms: _303  and  _304
REMARK  125  A    between atoms: _307  and  _309
REMARK  126  A    between atoms: _309  and  _310
REMARK  127  A    between atoms: _309  and  _312
REMARK  128  A    between atoms: _312  and  _313
REMARK  129  A    between atoms: _316  and  _318
REMARK  130  A    between atoms: _318  and  _319
REMARK  131  A    between atoms: _321  and  _323
REMARK  132  A    between atoms: _323  and  _324
REMARK  133  A    between atoms: _327  and  _329
REMARK  134  A    between atoms: _329  and  _330
REMARK  135  A    between atoms: _329  and  _332
REMARK  136  A    between atoms: _332  and  _333
REMARK  137  A    between atoms: _336  and  _338
REMARK  138  A    between atoms: _338  and  _339
REMARK  139  A    between atoms: _338  and  _341
REMARK  140  A    between atoms: _341  and  _342
REMARK  141  A    between atoms: _345  and  _347
REMARK  142  A    between atoms: _347  and  _348
REMARK  143  A    between atoms: _347  and  _350
REMARK  144  A    between atoms: _350  and  _351
REMARK  145  A    between atoms: _354  and  _356
REMARK  146  A    between atoms: _356  and  _357
REMARK  147  A    between atoms: _356  and  _359
REMARK  148  A    between atoms: _362  and  _364
REMARK  149  A    between atoms: _364  and  _365
REMARK  150  A    between atoms: _364  and  _367
REMARK  151  A    between atoms: _367  and  _368
REMARK  152  A    between atoms: _368  and  _369
REMARK  153  A    between atoms: _369  and  _370
REMARK  154  A    between atoms: _370  and  _371
REMARK  155  A    between atoms: _375  and  _377
REMARK  156  A    between atoms: _377  and  _378
REMARK  157  A    between atoms: _377  and  _380
REMARK  158  A    between atoms: _380  and  _381
REMARK  159  A    between atoms: _381  and  _382
REMARK  160  A    between atoms: _384  and  _386
REMARK  161  A    between atoms: _386  and  _387
REMARK  162  A    between atoms: _386  and  _389
REMARK  163  A    between atoms: _389  and  _390
REMARK  164  A    between atoms: _393  and  _395
REMARK  165  A    between atoms: _395  and  _396
REMARK  166  A    between atoms: _398  and  _400
REMARK  167  A    between atoms: _400  and  _401
REMARK  168  A    between atoms: _403  and  _405
REMARK  169  A    between atoms: _405  and  _406
REMARK  170  A    between atoms: _405  and  _408
REMARK  171  A    between atoms: _408  and  _409
REMARK  172  A    between atoms: _412  and  _414
REMARK  173  A    between atoms: _414  and  _415
REMARK  174  A    between atoms: _417  and  _419
REMARK  175  A    between atoms: _419  and  _420
REMARK  176  A    between atoms: _422  and  _424
REMARK  177  A    between atoms: _424  and  _425
REMARK  178  A    between atoms: _424  and  _427
REMARK  179  A    between atoms: _427  and  _428
REMARK  180  A    between atoms: _434  and  _436
REMARK  181  A    between atoms: _436  and  _437
REMARK  182  A    between atoms: _436  and  _439
REMARK  183  A    between atoms: _439  and  _440
REMARK  184  A    between atoms: _443  and  _445
REMARK  185  A    between atoms: _445  and  _446
REMARK  186  A    between atoms: _445  and  _448
REMARK  187  A    between atoms: _448  and  _449
REMARK  188  A    between atoms: _452  and  _454
REMARK  189  A    between atoms: _454  and  _455
REMARK  190  A    between atoms: _454  and  _457
REMARK  191  A    between atoms: _457  and  _458
REMARK  192  A    between atoms: _462  and  _463
REMARK  193  A    between atoms: _468  and  _470
REMARK  194  A    between atoms: _470  and  _471
REMARK  195  A    between atoms: _470  and  _473
REMARK  196  A    between atoms: _476  and  _478
REMARK  197  A    between atoms: _478  and  _479
REMARK  198  A    between atoms: _478  and  _481
REMARK  199  A    between atoms: _481  and  _482
REMARK  200  A    between atoms: _487  and  _489
REMARK  201  A    between atoms: _489  and  _490
REMARK  202  A    between atoms: _489  and  _492
REMARK  203  A    between atoms: _492  and  _493
REMARK  204  A    between atoms: _496  and  _498
REMARK  205  A    between atoms: _498  and  _499
REMARK  206  A    between atoms: _498  and  _501
REMARK  207  A    between atoms: _501  and  _502
REMARK  208  A    between atoms: _505  and  _507
REMARK  209  A    between atoms: _507  and  _508
REMARK  210  A    between atoms: _510  and  _512
REMARK  211  A    between atoms: _512  and  _513
REMARK  212  A    between atoms: _512  and  _515
REMARK  213  A    between atoms: _515  and  _516
REMARK  214  A    between atoms: _516  and  _517
REMARK  215  A    between atoms: _517  and  _518
REMARK  216  A    between atoms: _527  and  _529
REMARK  217  A    between atoms: _529  and  _530
REMARK  218  A    between atoms: _529  and  _532
REMARK  219  A    between atoms: _532  and  _533
REMARK                            x       y       z     vdW  Elec       q    Type
REMARK                         _______ _______ _______ _____ _____    ______ ____
ROOT
ATOM      1  O   HOH     1      24.569  17.882  10.842  0.00  0.00    +0.000 OA
ENDROOT
TORSDOF 0
REMARK  Name = ../refined-set-2016/2psu/2psu_pocket.pdb
REMARK  219 active torsions:
REMARK  status: ('A' for Active; 'I' for Inactive)
REMARK    1  A    between atoms: _1  and  _3
REMARK    2  A    between atoms: _3  and  _4
REMARK    3  A    between atoms: _3  and  _6
REMARK    4  A    between atoms: _6  and  _7
REMARK    5  A    between atoms: _7  and  _8
REMARK    6  A    between atoms: _8  and  _9
REMARK    7  A    between atoms: _18  and  _20
REMARK    8  A    between atoms: _20  and  _21
REMARK    9  A    between atoms: _20  and  _23
REMARK   10  A    between atoms: _23  and  _24
REMARK   11  A    between atoms: _27  and  _29
REMARK   12  A    between atoms: _29  and  _30
REMARK   13  A    between atoms: _29  and  _32
REMARK   14  A    between atoms: _32  and  _33
REMARK   15  A    between atoms: _36  and  _38
REMARK   16  A    between atoms: _38  and  _39
REMARK   17  A    between atoms: _38  and  _41
REMARK   18  A    between atoms: _41  and  _42
REMARK   19  A    between atoms: _45  and  _47
REMARK   20  A    between atoms: _47  and  _48
REMARK   21  A    between atoms: _47  and  _50
REMARK   22  A    between atoms: _50  and  _51
REMARK   23  A    between atoms: _54  and  _56
REMARK   24  A    between atoms: _56  and  _57
REMARK   25  A    between atoms: _59  and  _61
REMARK   26  A    between atoms: _61  and  _62
REMARK   27  A    between atoms: _65  and  _67
REMARK   28  A    between atoms: _67  and  _68
REMARK   29  A    between atoms: _67  and  _70
REMARK   30  A    between atoms: _70  and  _71
REMARK   31  A    between atoms: _74  and  _76
REMARK   32  A    between atoms: _76  and  _77
REMARK   33  A    between atoms: _76  and  _79
REMARK   34  A    between atoms: _79  and  _80
REMARK   35  A    between atoms: _83  and  _85
REMARK   36  A    between atoms: _85  and  _86
REMARK   37  A    between atoms: _85  and  _88
REMARK   38  A    between atoms: _88  and  _89
REMARK   39  A    between atoms: _92  and  _94
REMARK   40  A    between atoms: _94  and  _95
REMARK   41  A    between atoms: _94  and  _97
REMARK   42  A    between atoms: _100  and  _102
REMARK   43  A    between atoms: _102  and  _103
REMARK   44  A    between atoms: _102  and  _105
REMARK   45  A    between atoms: _105  and  _106
REMARK   46  A    between atoms: _106  and  _107
REMARK   47  A    between atoms: _109  and  _111
REMARK   48  A    between atoms: _111  and  _112
REMARK   49  A    between atoms: _111  and  _114
REMARK   50  A    between atoms: _114  and  _115
REMARK   51  A    between atoms: _118  and  _120
REMARK   52  A    between atoms: _120  and  _121
REMARK   53  A    between atoms: _123  and  _125
REMARK   54  A    between atoms: _125  and  _126
REMARK   55  A    between atoms: _128  and  _130
REMARK   56  A    between atoms: _130  and  _131
REMARK   57  A    between atoms: _130  and  _133
REMARK   58  A    between atoms: _133  and  _134
REMARK   59  A    between atoms: _137  and  _139
REMARK   60  A    between atoms: _139  and  _140
REMARK   61  A    between atoms: _142  and  _144
REMARK   62  A    between atoms: _144  and  _145
REMARK   63  A    between atoms: _147  and  _149
REMARK   64  A    between atoms: _149  and  _150
REMARK   65  A    between atoms: _149  and  _152
REMARK   66  A    between atoms: _152  and  _153
REMARK   67  A    between atoms: _159  and  _161
REMARK   68  A    between atoms: _161  and  _162
REMARK   69  A    between atoms: _161  and  _164
REMARK   70  A    between atoms: _164  and  _165
REMARK   71  A    between atoms: _168  and  _170
REMARK   72  A    between atoms: _170  and  _171
REMARK   73  A    between atoms: _170  and  _173
REMARK   74  A    between atoms: _173  and  _174
REMARK   75  A    between atoms: _177  and  _179
REMARK   76  A    between atoms: _179  and  _180
REMARK   77  A    between atoms: _179  and  _182
REMARK   78  A    between atoms: _182  and  _183
REMARK   79  A    between atoms: _187  and  _188
REMARK   80  A    between atoms: _193  and  _195
REMARK   81  A    between atoms: _195  and  _196
REMARK   82  A    between atoms: _195  and  _198
REMARK   83  A    between atoms: _201  and  _203
REMARK   84  A    between atoms: _203  and  _204
REMARK   85  A    between atoms: _203  and  _206
REMARK   86  A    between atoms: _206  and  _207
REMARK   87  A    between atoms: _212  and  _214
REMARK   88  A    between atoms: _214  and  _215
REMARK   89  A    between atoms: _214  and  _217
REMARK   90  A    between atoms: _217  and  _218
REMARK   91  A    between atoms: _221  and  _223
REMARK   92  A    between atoms: _223  and  _224
REMARK   93  A    between atoms: _223  and  _226
REMARK   94  A    between atoms: _226  and  _227
REMARK   95  A    between atoms: _230  and  _232
REMARK   96  A    between atoms: _232  and  _233
REMARK   97  A    between atoms: _235  and  _237
REMARK   98  A    between atoms: _237  and  _238
REMARK   99  A    between atoms: _237  and  _240
REMARK  100  A    between atoms: _240  and  _241
REMARK  101  A    between atoms: _241  and  _242
REMARK  102  A    between atoms: _242  and  _243
REMARK  103  A    between atoms: _252  and  _254
REMARK  104  A    between atoms: _254  and  _255
REMARK  105  A    between atoms: _254  and  _257
REMARK  106  A    between atoms: _257  and  _258
REMARK  107  A    between atoms: _263  and  _265
REMARK  108  A    between atoms: _265  and  _266
REMARK  109  A    between atoms: _265  and  _268
REMARK  110  A    between atoms: _268  and  _269
REMARK  111  A    between atoms: _269  and  _270
REMARK  112  A    between atoms: _270  and  _271
REMARK  113  A    between atoms: _280  and  _282
REMARK  114  A    between atoms: _282  and  _283
REMARK  115  A    between atoms: _282  and  _285
REMARK  116  A    between atoms: _285  and  _286
REMARK  117  A    between atoms: _289  and  _291
REMARK  118  A    between atoms: _291  and  _292
REMARK  119  A    between atoms: _291  and  _294
REMARK  120  A    between atoms: _294  and  _295
REMARK  121  A    between atoms: _298  and  _300
REMARK  122  A    between atoms: _300  and  _301
REMARK  123  A    between atoms: _300  and  _303
REMARK  124  A    between atoms: _303  and  _304
REMARK  125  A    between atoms: _307  and  _309
REMARK  126  A    between atoms: _309  and  _310
REMARK  127  A    between atoms: _309  and  _312
REMARK  128  A    between atoms: _312  and  _313
REMARK  129  A    between atoms: _316  and  _318
REMARK  130  A    between atoms: _318  and  _319
REMARK  131  A    between atoms: _321  and  _323
REMARK  132  A    between atoms: _323  and  _324
REMARK  133  A    between atoms: _327  and  _329
REMARK  134  A    between atoms: _329  and  _330
REMARK  135  A    between atoms: _329  and  _332
REMARK  136  A    between atoms: _332  and  _333
REMARK  137  A    between atoms: _336  and  _338
REMARK  138  A    between atoms: _338  and  _339
REMARK  139  A    between atoms: _338  and  _341
REMARK  140  A    between atoms: _341  and  _342
REMARK  141  A    between atoms: _345  and  _347
REMARK  142  A    between atoms: _347  and  _348
REMARK  143  A    between atoms: _347  and  _350
REMARK  144  A    between atoms: _350  and  _351
REMARK  145  A    between atoms: _354  and  _356
REMARK  146  A    between atoms: _356  and  _357
REMARK  147  A    between atoms: _356  and  _359
REMARK  148  A    between atoms: _362  and  _364
REMARK  149  A    between atoms: _364  and  _365
REMARK  150  A    between atoms: _364  and  _367
REMARK  151  A    between atoms: _367  and  _368
REMARK  152  A    between atoms: _368  and  _369
REMARK  153  A    between atoms: _369  and  _370
REMARK  154  A    between atoms: _370  and  _371
REMARK  155  A    between atoms: _375  and  _377
REMARK  156  A    between atoms: _377  and  _378
REMARK  157  A    between atoms: _377  and  _380
REMARK  158  A    between atoms: _380  and  _381
REMARK  159  A    between atoms: _381  and  _382
REMARK  160  A    between atoms: _384  and  _386
REMARK  161  A    between atoms: _386  and  _387
REMARK  162  A    between atoms: _386  and  _389
REMARK  163  A    between atoms: _389  and  _390
REMARK  164  A    between atoms: _393  and  _395
REMARK  165  A    between atoms: _395  and  _396
REMARK  166  A    between atoms: _398  and  _400
REMARK  167  A    between atoms: _400  and  _401
REMARK  168  A    between atoms: _403  and  _405
REMARK  169  A    between atoms: _405  and  _406
REMARK  170  A    between atoms: _405  and  _408
REMARK  171  A    between atoms: _408  and  _409
REMARK  172  A    between atoms: _412  and  _414
REMARK  173  A    between atoms: _414  and  _415
REMARK  174  A    between atoms: _417  and  _419
REMARK  175  A    between atoms: _419  and  _420
REMARK  176  A    between atoms: _422  and  _424
REMARK  177  A    between atoms: _424  and  _425
REMARK  178  A    between atoms: _424  and  _427
REMARK  179  A    between atoms: _427  and  _428
REMARK  180  A    between atoms: _434  and  _436
REMARK  181  A    between atoms: _436  and  _437
REMARK  182  A    between atoms: _436  and  _439
REMARK  183  A    between atoms: _439  and  _440
REMARK  184  A    between atoms: _443  and  _445
REMARK  185  A    between atoms: _445  and  _446
REMARK  186  A    between atoms: _445  and  _448
REMARK  187  A    between atoms: _448  and  _449
REMARK  188  A    between atoms: _452  and  _454
REMARK  189  A    between atoms: _454  and  _455
REMARK  190  A    between atoms: _454  and  _457
REMARK  191  A    between atoms: _457  and  _458
REMARK  192  A    between atoms: _462  and  _463
REMARK  193  A    between atoms: _468  and  _470
REMARK  194  A    between atoms: _470  and  _471
REMARK  195  A    between atoms: _470  and  _473
REMARK  196  A    between atoms: _476  and  _478
REMARK  197  A    between atoms: _478  and  _479
REMARK  198  A    between atoms: _478  and  _481
REMARK  199  A    between atoms: _481  and  _482
REMARK  200  A    between atoms: _487  and  _489
REMARK  201  A    between atoms: _489  and  _490
REMARK  202  A    between atoms: _489  and  _492
REMARK  203  A    between atoms: _492  and  _493
REMARK  204  A    between atoms: _496  and  _498
REMARK  205  A    between atoms: _498  and  _499
REMARK  206  A    between atoms: _498  and  _501
REMARK  207  A    between atoms: _501  and  _502
REMARK  208  A    between atoms: _505  and  _507
REMARK  209  A    between atoms: _507  and  _508
REMARK  210  A    between atoms: _510  and  _512
REMARK  211  A    between atoms: _512  and  _513
REMARK  212  A    between atoms: _512  and  _515
REMARK  213  A    between atoms: _515  and  _516
REMARK  214  A    between atoms: _516  and  _517
REMARK  215  A    between atoms: _517  and  _518
REMARK  216  A    between atoms: _527  and  _529
REMARK  217  A    between atoms: _529  and  _530
REMARK  218  A    between atoms: _529  and  _532
REMARK  219  A    between atoms: _532  and  _533
REMARK                            x       y       z     vdW  Elec       q    Type
REMARK                         _______ _______ _______ _____ _____    ______ ____
ROOT
ATOM      1  O   HOH     1       9.129  34.599  21.310  0.00  0.00    +0.000 OA
ENDROOT
TORSDOF 0
REMARK  Name = ../refined-set-2016/2psu/2psu_pocket.pdb
REMARK  219 active torsions:
REMARK  status: ('A' for Active; 'I' for Inactive)
REMARK    1  A    between atoms: _1  and  _3
REMARK    2  A    between atoms: _3  and  _4
REMARK    3  A    between atoms: _3  and  _6
REMARK    4  A    between atoms: _6  and  _7
REMARK    5  A    between atoms: _7  and  _8
REMARK    6  A    between atoms: _8  and  _9
REMARK    7  A    between atoms: _18  and  _20
REMARK    8  A    between atoms: _20  and  _21
REMARK    9  A    between atoms: _20  and  _23
REMARK   10  A    between atoms: _23  and  _24
REMARK   11  A    between atoms: _27  and  _29
REMARK   12  A    between atoms: _29  and  _30
REMARK   13  A    between atoms: _29  and  _32
REMARK   14  A    between atoms: _32  and  _33
REMARK   15  A    between atoms: _36  and  _38
REMARK   16  A    between atoms: _38  and  _39
REMARK   17  A    between atoms: _38  and  _41
REMARK   18  A    between atoms: _41  and  _42
REMARK   19  A    between atoms: _45  and  _47
REMARK   20  A    between atoms: _47  and  _48
REMARK   21  A    between atoms: _47  and  _50
REMARK   22  A    between atoms: _50  and  _51
REMARK   23  A    between atoms: _54  and  _56
REMARK   24  A    between atoms: _56  and  _57
REMARK   25  A    between atoms: _59  and  _61
REMARK   26  A    between atoms: _61  and  _62
REMARK   27  A    between atoms: _65  and  _67
REMARK   28  A    between atoms: _67  and  _68
REMARK   29  A    between atoms: _67  and  _70
REMARK   30  A    between atoms: _70  and  _71
REMARK   31  A    between atoms: _74  and  _76
REMARK   32  A    between atoms: _76  and  _77
REMARK   33  A    between atoms: _76  and  _79
REMARK   34  A    between atoms: _79  and  _80
REMARK   35  A    between atoms: _83  and  _85
REMARK   36  A    between atoms: _85  and  _86
REMARK   37  A    between atoms: _85  and  _88
REMARK   38  A    between atoms: _88  and  _89
REMARK   39  A    between atoms: _92  and  _94
REMARK   40  A    between atoms: _94  and  _95
REMARK   41  A    between atoms: _94  and  _97
REMARK   42  A    between atoms: _100  and  _102
REMARK   43  A    between atoms: _102  and  _103
REMARK   44  A    between atoms: _102  and  _105
REMARK   45  A    between atoms: _105  and  _106
REMARK   46  A    between atoms: _106  and  _107
REMARK   47  A    between atoms: _109  and  _111
REMARK   48  A    between atoms: _111  and  _112
REMARK   49  A    between atoms: _111  and  _114
REMARK   50  A    between atoms: _114  and  _115
REMARK   51  A    between atoms: _118  and  _120
REMARK   52  A    between atoms: _120  and  _121
REMARK   53  A    between atoms: _123  and  _125
REMARK   54  A    between atoms: _125  and  _126
REMARK   55  A    between atoms: _128  and  _130
REMARK   56  A    between atoms: _130  and  _131
REMARK   57  A    between atoms: _130  and  _133
REMARK   58  A    between atoms: _133  and  _134
REMARK   59  A    between atoms: _137  and  _139
REMARK   60  A    between atoms: _139  and  _140
REMARK   61  A    between atoms: _142  and  _144
REMARK   62  A    between atoms: _144  and  _145
REMARK   63  A    between atoms: _147  and  _149
REMARK   64  A    between atoms: _149  and  _150
REMARK   65  A    between atoms: _149  and  _152
REMARK   66  A    between atoms: _152  and  _153
REMARK   67  A    between atoms: _159  and  _161
REMARK   68  A    between atoms: _161  and  _162
REMARK   69  A    between atoms: _161  and  _164
REMARK   70  A    between atoms: _164  and  _165
REMARK   71  A    between atoms: _168  and  _170
REMARK   72  A    between atoms: _170  and  _171
REMARK   73  A    between atoms: _170  and  _173
REMARK   74  A    between atoms: _173  and  _174
REMARK   75  A    between atoms: _177  and  _179
REMARK   76  A    between atoms: _179  and  _180
REMARK   77  A    between atoms: _179  and  _182
REMARK   78  A    between atoms: _182  and  _183
REMARK   79  A    between atoms: _187  and  _188
REMARK   80  A    between atoms: _193  and  _195
REMARK   81  A    between atoms: _195  and  _196
REMARK   82  A    between atoms: _195  and  _198
REMARK   83  A    between atoms: _201  and  _203
REMARK   84  A    between atoms: _203  and  _204
REMARK   85  A    between atoms: _203  and  _206
REMARK   86  A    between atoms: _206  and  _207
REMARK   87  A    between atoms: _212  and  _214
REMARK   88  A    between atoms: _214  and  _215
REMARK   89  A    between atoms: _214  and  _217
REMARK   90  A    between atoms: _217  and  _218
REMARK   91  A    between atoms: _221  and  _223
REMARK   92  A    between atoms: _223  and  _224
REMARK   93  A    between atoms: _223  and  _226
REMARK   94  A    between atoms: _226  and  _227
REMARK   95  A    between atoms: _230  and  _232
REMARK   96  A    between atoms: _232  and  _233
REMARK   97  A    between atoms: _235  and  _237
REMARK   98  A    between atoms: _237  and  _238
REMARK   99  A    between atoms: _237  and  _240
REMARK  100  A    between atoms: _240  and  _241
REMARK  101  A    between atoms: _241  and  _242
REMARK  102  A    between atoms: _242  and  _243
REMARK  103  A    between atoms: _252  and  _254
REMARK  104  A    between atoms: _254  and  _255
REMARK  105  A    between atoms: _254  and  _257
REMARK  106  A    between atoms: _257  and  _258
REMARK  107  A    between atoms: _263  and  _265
REMARK  108  A    between atoms: _265  and  _266
REMARK  109  A    between atoms: _265  and  _268
REMARK  110  A    between atoms: _268  and  _269
REMARK  111  A    between atoms: _269  and  _270
REMARK  112  A    between atoms: _270  and  _271
REMARK  113  A    between atoms: _280  and  _282
REMARK  114  A    between atoms: _282  and  _283
REMARK  115  A    between atoms: _282  and  _285
REMARK  116  A    between atoms: _285  and  _286
REMARK  117  A    between atoms: _289  and  _291
REMARK  118  A    between atoms: _291  and  _292
REMARK  119  A    between atoms: _291  and  _294
REMARK  120  A    between atoms: _294  and  _295
REMARK  121  A    between atoms: _298  and  _300
REMARK  122  A    between atoms: _300  and  _301
REMARK  123  A    between atoms: _300  and  _303
REMARK  124  A    between atoms: _303  and  _304
REMARK  125  A    between atoms: _307  and  _309
REMARK  126  A    between atoms: _309  and  _310
REMARK  127  A    between atoms: _309  and  _312
REMARK  128  A    between atoms: _312  and  _313
REMARK  129  A    between atoms: _316  and  _318
REMARK  130  A    between atoms: _318  and  _319
REMARK  131  A    between atoms: _321  and  _323
REMARK  132  A    between atoms: _323  and  _324
REMARK  133  A    between atoms: _327  and  _329
REMARK  134  A    between atoms: _329  and  _330
REMARK  135  A    between atoms: _329  and  _332
REMARK  136  A    between atoms: _332  and  _333
REMARK  137  A    between atoms: _336  and  _338
REMARK  138  A    between atoms: _338  and  _339
REMARK  139  A    between atoms: _338  and  _341
REMARK  140  A    between atoms: _341  and  _342
REMARK  141  A    between atoms: _345  and  _347
REMARK  142  A    between atoms: _347  and  _348
REMARK  143  A    between atoms: _347  and  _350
REMARK  144  A    between atoms: _350  and  _351
REMARK  145  A    between atoms: _354  and  _356
REMARK  146  A    between atoms: _356  and  _357
REMARK  147  A    between atoms: _356  and  _359
REMARK  148  A    between atoms: _362  and  _364
REMARK  149  A    between atoms: _364  and  _365
REMARK  150  A    between atoms: _364  and  _367
REMARK  151  A    between atoms: _367  and  _368
REMARK  152  A    between atoms: _368  and  _369
REMARK  153  A    between atoms: _369  and  _370
REMARK  154  A    between atoms: _370  and  _371
REMARK  155  A    between atoms: _375  and  _377
REMARK  156  A    between atoms: _377  and  _378
REMARK  157  A    between atoms: _377  and  _380
REMARK  158  A    between atoms: _380  and  _381
REMARK  159  A    between atoms: _381  and  _382
REMARK  160  A    between atoms: _384  and  _386
REMARK  161  A    between atoms: _386  and  _387
REMARK  162  A    between atoms: _386  and  _389
REMARK  163  A    between atoms: _389  and  _390
REMARK  164  A    between atoms: _393  and  _395
REMARK  165  A    between atoms: _395  and  _396
REMARK  166  A    between atoms: _398  and  _400
REMARK  167  A    between atoms: _400  and  _401
REMARK  168  A    between atoms: _403  and  _405
REMARK  169  A    between atoms: _405  and  _406
REMARK  170  A    between atoms: _405  and  _408
REMARK  171  A    between atoms: _408  and  _409
REMARK  172  A    between atoms: _412  and  _414
REMARK  173  A    between atoms: _414  and  _415
REMARK  174  A    between atoms: _417  and  _419
REMARK  175  A    between atoms: _419  and  _420
REMARK  176  A    between atoms: _422  and  _424
REMARK  177  A    between atoms: _424  and  _425
REMARK  178  A    between atoms: _424  and  _427
REMARK  179  A    between atoms: _427  and  _428
REMARK  180  A    between atoms: _434  and  _436
REMARK  181  A    between atoms: _436  and  _437
REMARK  182  A    between atoms: _436  and  _439
REMARK  183  A    between atoms: _439  and  _440
REMARK  184  A    between atoms: _443  and  _445
REMARK  185  A    between atoms: _445  and  _446
REMARK  186  A    between atoms: _445  and  _448
REMARK  187  A    between atoms: _448  and  _449
REMARK  188  A    between atoms: _452  and  _454
REMARK  189  A    between atoms: _454  and  _455
REMARK  190  A    between atoms: _454  and  _457
REMARK  191  A    between atoms: _457  and  _458
REMARK  192  A    between atoms: _462  and  _463
REMARK  193  A    between atoms: _468  and  _470
REMARK  194  A    between atoms: _470  and  _471
REMARK  195  A    between atoms: _470  and  _473
REMARK  196  A    between atoms: _476  and  _478
REMARK  197  A    between atoms: _478  and  _479
REMARK  198  A    between atoms: _478  and  _481
REMARK  199  A    between atoms: _481  and  _482
REMARK  200  A    between atoms: _487  and  _489
REMARK  201  A    between atoms: _489  and  _490
REMARK  202  A    between atoms: _489  and  _492
REMARK  203  A    between atoms: _492  and  _493
REMARK  204  A    between atoms: _496  and  _498
REMARK  205  A    between atoms: _498  and  _499
REMARK  206  A    between atoms: _498  and  _501
REMARK  207  A    between atoms: _501  and  _502
REMARK  208  A    between atoms: _505  and  _507
REMARK  209  A    between atoms: _507  and  _508
REMARK  210  A    between atoms: _510  and  _512
REMARK  211  A    between atoms: _512  and  _513
REMARK  212  A    between atoms: _512  and  _515
REMARK  213  A    between atoms: _515  and  _516
REMARK  214  A    between atoms: _516  and  _517
REMARK  215  A    between atoms: _517  and  _518
REMARK  216  A    between atoms: _527  and  _529
REMARK  217  A    between atoms: _529  and  _530
REMARK  218  A    between atoms: _529  and  _532
REMARK  219  A    between atoms: _532  and  _533
REMARK                            x       y       z     vdW  Elec       q    Type
REMARK                         _______ _______ _______ _____ _____    ______ ____
ROOT
ATOM      1  O   HOH     1      20.141  32.254  23.470  0.00  0.00    +0.000 OA
ENDROOT
TORSDOF 0
REMARK  Name = ../refined-set-2016/2psu/2psu_pocket.pdb
REMARK  219 active torsions:
REMARK  status: ('A' for Active; 'I' for Inactive)
REMARK    1  A    between atoms: _1  and  _3
REMARK    2  A    between atoms: _3  and  _4
REMARK    3  A    between atoms: _3  and  _6
REMARK    4  A    between atoms: _6  and  _7
REMARK    5  A    between atoms: _7  and  _8
REMARK    6  A    between atoms: _8  and  _9
REMARK    7  A    between atoms: _18  and  _20
REMARK    8  A    between atoms: _20  and  _21
REMARK    9  A    between atoms: _20  and  _23
REMARK   10  A    between atoms: _23  and  _24
REMARK   11  A    between atoms: _27  and  _29
REMARK   12  A    between atoms: _29  and  _30
REMARK   13  A    between atoms: _29  and  _32
REMARK   14  A    between atoms: _32  and  _33
REMARK   15  A    between atoms: _36  and  _38
REMARK   16  A    between atoms: _38  and  _39
REMARK   17  A    between atoms: _38  and  _41
REMARK   18  A    between atoms: _41  and  _42
REMARK   19  A    between atoms: _45  and  _47
REMARK   20  A    between atoms: _47  and  _48
REMARK   21  A    between atoms: _47  and  _50
REMARK   22  A    between atoms: _50  and  _51
REMARK   23  A    between atoms: _54  and  _56
REMARK   24  A    between atoms: _56  and  _57
REMARK   25  A    between atoms: _59  and  _61
REMARK   26  A    between atoms: _61  and  _62
REMARK   27  A    between atoms: _65  and  _67
REMARK   28  A    between atoms: _67  and  _68
REMARK   29  A    between atoms: _67  and  _70
REMARK   30  A    between atoms: _70  and  _71
REMARK   31  A    between atoms: _74  and  _76
REMARK   32  A    between atoms: _76  and  _77
REMARK   33  A    between atoms: _76  and  _79
REMARK   34  A    between atoms: _79  and  _80
REMARK   35  A    between atoms: _83  and  _85
REMARK   36  A    between atoms: _85  and  _86
REMARK   37  A    between atoms: _85  and  _88
REMARK   38  A    between atoms: _88  and  _89
REMARK   39  A    between atoms: _92  and  _94
REMARK   40  A    between atoms: _94  and  _95
REMARK   41  A    between atoms: _94  and  _97
REMARK   42  A    between atoms: _100  and  _102
REMARK   43  A    between atoms: _102  and  _103
REMARK   44  A    between atoms: _102  and  _105
REMARK   45  A    between atoms: _105  and  _106
REMARK   46  A    between atoms: _106  and  _107
REMARK   47  A    between atoms: _109  and  _111
REMARK   48  A    between atoms: _111  and  _112
REMARK   49  A    between atoms: _111  and  _114
REMARK   50  A    between atoms: _114  and  _115
REMARK   51  A    between atoms: _118  and  _120
REMARK   52  A    between atoms: _120  and  _121
REMARK   53  A    between atoms: _123  and  _125
REMARK   54  A    between atoms: _125  and  _126
REMARK   55  A    between atoms: _128  and  _130
REMARK   56  A    between atoms: _130  and  _131
REMARK   57  A    between atoms: _130  and  _133
REMARK   58  A    between atoms: _133  and  _134
REMARK   59  A    between atoms: _137  and  _139
REMARK   60  A    between atoms: _139  and  _140
REMARK   61  A    between atoms: _142  and  _144
REMARK   62  A    between atoms: _144  and  _145
REMARK   63  A    between atoms: _147  and  _149
REMARK   64  A    between atoms: _149  and  _150
REMARK   65  A    between atoms: _149  and  _152
REMARK   66  A    between atoms: _152  and  _153
REMARK   67  A    between atoms: _159  and  _161
REMARK   68  A    between atoms: _161  and  _162
REMARK   69  A    between atoms: _161  and  _164
REMARK   70  A    between atoms: _164  and  _165
REMARK   71  A    between atoms: _168  and  _170
REMARK   72  A    between atoms: _170  and  _171
REMARK   73  A    between atoms: _170  and  _173
REMARK   74  A    between atoms: _173  and  _174
REMARK   75  A    between atoms: _177  and  _179
REMARK   76  A    between atoms: _179  and  _180
REMARK   77  A    between atoms: _179  and  _182
REMARK   78  A    between atoms: _182  and  _183
REMARK   79  A    between atoms: _187  and  _188
REMARK   80  A    between atoms: _193  and  _195
REMARK   81  A    between atoms: _195  and  _196
REMARK   82  A    between atoms: _195  and  _198
REMARK   83  A    between atoms: _201  and  _203
REMARK   84  A    between atoms: _203  and  _204
REMARK   85  A    between atoms: _203  and  _206
REMARK   86  A    between atoms: _206  and  _207
REMARK   87  A    between atoms: _212  and  _214
REMARK   88  A    between atoms: _214  and  _215
REMARK   89  A    between atoms: _214  and  _217
REMARK   90  A    between atoms: _217  and  _218
REMARK   91  A    between atoms: _221  and  _223
REMARK   92  A    between atoms: _223  and  _224
REMARK   93  A    between atoms: _223  and  _226
REMARK   94  A    between atoms: _226  and  _227
REMARK   95  A    between atoms: _230  and  _232
REMARK   96  A    between atoms: _232  and  _233
REMARK   97  A    between atoms: _235  and  _237
REMARK   98  A    between atoms: _237  and  _238
REMARK   99  A    between atoms: _237  and  _240
REMARK  100  A    between atoms: _240  and  _241
REMARK  101  A    between atoms: _241  and  _242
REMARK  102  A    between atoms: _242  and  _243
REMARK  103  A    between atoms: _252  and  _254
REMARK  104  A    between atoms: _254  and  _255
REMARK  105  A    between atoms: _254  and  _257
REMARK  106  A    between atoms: _257  and  _258
REMARK  107  A    between atoms: _263  and  _265
REMARK  108  A    between atoms: _265  and  _266
REMARK  109  A    between atoms: _265  and  _268
REMARK  110  A    between atoms: _268  and  _269
REMARK  111  A    between atoms: _269  and  _270
REMARK  112  A    between atoms: _270  and  _271
REMARK  113  A    between atoms: _280  and  _282
REMARK  114  A    between atoms: _282  and  _283
REMARK  115  A    between atoms: _282  and  _285
REMARK  116  A    between atoms: _285  and  _286
REMARK  117  A    between atoms: _289  and  _291
REMARK  118  A    between atoms: _291  and  _292
REMARK  119  A    between atoms: _291  and  _294
REMARK  120  A    between atoms: _294  and  _295
REMARK  121  A    between atoms: _298  and  _300
REMARK  122  A    between atoms: _300  and  _301
REMARK  123  A    between atoms: _300  and  _303
REMARK  124  A    between atoms: _303  and  _304
REMARK  125  A    between atoms: _307  and  _309
REMARK  126  A    between atoms: _309  and  _310
REMARK  127  A    between atoms: _309  and  _312
REMARK  128  A    between atoms: _312  and  _313
REMARK  129  A    between atoms: _316  and  _318
REMARK  130  A    between atoms: _318  and  _319
REMARK  131  A    between atoms: _321  and  _323
REMARK  132  A    between atoms: _323  and  _324
REMARK  133  A    between atoms: _327  and  _329
REMARK  134  A    between atoms: _329  and  _330
REMARK  135  A    between atoms: _329  and  _332
REMARK  136  A    between atoms: _332  and  _333
REMARK  137  A    between atoms: _336  and  _338
REMARK  138  A    between atoms: _338  and  _339
REMARK  139  A    between atoms: _338  and  _341
REMARK  140  A    between atoms: _341  and  _342
REMARK  141  A    between atoms: _345  and  _347
REMARK  142  A    between atoms: _347  and  _348
REMARK  143  A    between atoms: _347  and  _350
REMARK  144  A    between atoms: _350  and  _351
REMARK  145  A    between atoms: _354  and  _356
REMARK  146  A    between atoms: _356  and  _357
REMARK  147  A    between atoms: _356  and  _359
REMARK  148  A    between atoms: _362  and  _364
REMARK  149  A    between atoms: _364  and  _365
REMARK  150  A    between atoms: _364  and  _367
REMARK  151  A    between atoms: _367  and  _368
REMARK  152  A    between atoms: _368  and  _369
REMARK  153  A    between atoms: _369  and  _370
REMARK  154  A    between atoms: _370  and  _371
REMARK  155  A    between atoms: _375  and  _377
REMARK  156  A    between atoms: _377  and  _378
REMARK  157  A    between atoms: _377  and  _380
REMARK  158  A    between atoms: _380  and  _381
REMARK  159  A    between atoms: _381  and  _382
REMARK  160  A    between atoms: _384  and  _386
REMARK  161  A    between atoms: _386  and  _387
REMARK  162  A    between atoms: _386  and  _389
REMARK  163  A    between atoms: _389  and  _390
REMARK  164  A    between atoms: _393  and  _395
REMARK  165  A    between atoms: _395  and  _396
REMARK  166  A    between atoms: _398  and  _400
REMARK  167  A    between atoms: _400  and  _401
REMARK  168  A    between atoms: _403  and  _405
REMARK  169  A    between atoms: _405  and  _406
REMARK  170  A    between atoms: _405  and  _408
REMARK  171  A    between atoms: _408  and  _409
REMARK  172  A    between atoms: _412  and  _414
REMARK  173  A    between atoms: _414  and  _415
REMARK  174  A    between atoms: _417  and  _419
REMARK  175  A    between atoms: _419  and  _420
REMARK  176  A    between atoms: _422  and  _424
REMARK  177  A    between atoms: _424  and  _425
REMARK  178  A    between atoms: _424  and  _427
REMARK  179  A    between atoms: _427  and  _428
REMARK  180  A    between atoms: _434  and  _436
REMARK  181  A    between atoms: _436  and  _437
REMARK  182  A    between atoms: _436  and  _439
REMARK  183  A    between atoms: _439  and  _440
REMARK  184  A    between atoms: _443  and  _445
REMARK  185  A    between atoms: _445  and  _446
REMARK  186  A    between atoms: _445  and  _448
REMARK  187  A    between atoms: _448  and  _449
REMARK  188  A    between atoms: _452  and  _454
REMARK  189  A    between atoms: _454  and  _455
REMARK  190  A    between atoms: _454  and  _457
REMARK  191  A    between atoms: _457  and  _458
REMARK  192  A    between atoms: _462  and  _463
REMARK  193  A    between atoms: _468  and  _470
REMARK  194  A    between atoms: _470  and  _471
REMARK  195  A    between atoms: _470  and  _473
REMARK  196  A    between atoms: _476  and  _478
REMARK  197  A    between atoms: _478  and  _479
REMARK  198  A    between atoms: _478  and  _481
REMARK  199  A    between atoms: _481  and  _482
REMARK  200  A    between atoms: _487  and  _489
REMARK  201  A    between atoms: _489  and  _490
REMARK  202  A    between atoms: _489  and  _492
REMARK  203  A    between atoms: _492  and  _493
REMARK  204  A    between atoms: _496  and  _498
REMARK  205  A    between atoms: _498  and  _499
REMARK  206  A    between atoms: _498  and  _501
REMARK  207  A    between atoms: _501  and  _502
REMARK  208  A    between atoms: _505  and  _507
REMARK  209  A    between atoms: _507  and  _508
REMARK  210  A    between atoms: _510  and  _512
REMARK  211  A    between atoms: _512  and  _513
REMARK  212  A    between atoms: _512  and  _515
REMARK  213  A    between atoms: _515  and  _516
REMARK  214  A    between atoms: _516  and  _517
REMARK  215  A    between atoms: _517  and  _518
REMARK  216  A    between atoms: _527  and  _529
REMARK  217  A    between atoms: _529  and  _530
REMARK  218  A    between atoms: _529  and  _532
REMARK  219  A    between atoms: _532  and  _533
REMARK                            x       y       z     vdW  Elec       q    Type
REMARK                         _______ _______ _______ _____ _____    ______ ____
ROOT
ATOM      1  O   HOH     1      18.708  34.501  19.641  0.00  0.00    +0.000 OA
ENDROOT
TORSDOF 0
REMARK  Name = ../refined-set-2016/2psu/2psu_pocket.pdb
REMARK  219 active torsions:
REMARK  status: ('A' for Active; 'I' for Inactive)
REMARK    1  A    between atoms: _1  and  _3
REMARK    2  A    between atoms: _3  and  _4
REMARK    3  A    between atoms: _3  and  _6
REMARK    4  A    between atoms: _6  and  _7
REMARK    5  A    between atoms: _7  and  _8
REMARK    6  A    between atoms: _8  and  _9
REMARK    7  A    between atoms: _18  and  _20
REMARK    8  A    between atoms: _20  and  _21
REMARK    9  A    between atoms: _20  and  _23
REMARK   10  A    between atoms: _23  and  _24
REMARK   11  A    between atoms: _27  and  _29
REMARK   12  A    between atoms: _29  and  _30
REMARK   13  A    between atoms: _29  and  _32
REMARK   14  A    between atoms: _32  and  _33
REMARK   15  A    between atoms: _36  and  _38
REMARK   16  A    between atoms: _38  and  _39
REMARK   17  A    between atoms: _38  and  _41
REMARK   18  A    between atoms: _41  and  _42
REMARK   19  A    between atoms: _45  and  _47
REMARK   20  A    between atoms: _47  and  _48
REMARK   21  A    between atoms: _47  and  _50
REMARK   22  A    between atoms: _50  and  _51
REMARK   23  A    between atoms: _54  and  _56
REMARK   24  A    between atoms: _56  and  _57
REMARK   25  A    between atoms: _59  and  _61
REMARK   26  A    between atoms: _61  and  _62
REMARK   27  A    between atoms: _65  and  _67
REMARK   28  A    between atoms: _67  and  _68
REMARK   29  A    between atoms: _67  and  _70
REMARK   30  A    between atoms: _70  and  _71
REMARK   31  A    between atoms: _74  and  _76
REMARK   32  A    between atoms: _76  and  _77
REMARK   33  A    between atoms: _76  and  _79
REMARK   34  A    between atoms: _79  and  _80
REMARK   35  A    between atoms: _83  and  _85
REMARK   36  A    between atoms: _85  and  _86
REMARK   37  A    between atoms: _85  and  _88
REMARK   38  A    between atoms: _88  and  _89
REMARK   39  A    between atoms: _92  and  _94
REMARK   40  A    between atoms: _94  and  _95
REMARK   41  A    between atoms: _94  and  _97
REMARK   42  A    between atoms: _100  and  _102
REMARK   43  A    between atoms: _102  and  _103
REMARK   44  A    between atoms: _102  and  _105
REMARK   45  A    between atoms: _105  and  _106
REMARK   46  A    between atoms: _106  and  _107
REMARK   47  A    between atoms: _109  and  _111
REMARK   48  A    between atoms: _111  and  _112
REMARK   49  A    between atoms: _111  and  _114
REMARK   50  A    between atoms: _114  and  _115
REMARK   51  A    between atoms: _118  and  _120
REMARK   52  A    between atoms: _120  and  _121
REMARK   53  A    between atoms: _123  and  _125
REMARK   54  A    between atoms: _125  and  _126
REMARK   55  A    between atoms: _128  and  _130
REMARK   56  A    between atoms: _130  and  _131
REMARK   57  A    between atoms: _130  and  _133
REMARK   58  A    between atoms: _133  and  _134
REMARK   59  A    between atoms: _137  and  _139
REMARK   60  A    between atoms: _139  and  _140
REMARK   61  A    between atoms: _142  and  _144
REMARK   62  A    between atoms: _144  and  _145
REMARK   63  A    between atoms: _147  and  _149
REMARK   64  A    between atoms: _149  and  _150
REMARK   65  A    between atoms: _149  and  _152
REMARK   66  A    between atoms: _152  and  _153
REMARK   67  A    between atoms: _159  and  _161
REMARK   68  A    between atoms: _161  and  _162
REMARK   69  A    between atoms: _161  and  _164
REMARK   70  A    between atoms: _164  and  _165
REMARK   71  A    between atoms: _168  and  _170
REMARK   72  A    between atoms: _170  and  _171
REMARK   73  A    between atoms: _170  and  _173
REMARK   74  A    between atoms: _173  and  _174
REMARK   75  A    between atoms: _177  and  _179
REMARK   76  A    between atoms: _179  and  _180
REMARK   77  A    between atoms: _179  and  _182
REMARK   78  A    between atoms: _182  and  _183
REMARK   79  A    between atoms: _187  and  _188
REMARK   80  A    between atoms: _193  and  _195
REMARK   81  A    between atoms: _195  and  _196
REMARK   82  A    between atoms: _195  and  _198
REMARK   83  A    between atoms: _201  and  _203
REMARK   84  A    between atoms: _203  and  _204
REMARK   85  A    between atoms: _203  and  _206
REMARK   86  A    between atoms: _206  and  _207
REMARK   87  A    between atoms: _212  and  _214
REMARK   88  A    between atoms: _214  and  _215
REMARK   89  A    between atoms: _214  and  _217
REMARK   90  A    between atoms: _217  and  _218
REMARK   91  A    between atoms: _221  and  _223
REMARK   92  A    between atoms: _223  and  _224
REMARK   93  A    between atoms: _223  and  _226
REMARK   94  A    between atoms: _226  and  _227
REMARK   95  A    between atoms: _230  and  _232
REMARK   96  A    between atoms: _232  and  _233
REMARK   97  A    between atoms: _235  and  _237
REMARK   98  A    between atoms: _237  and  _238
REMARK   99  A    between atoms: _237  and  _240
REMARK  100  A    between atoms: _240  and  _241
REMARK  101  A    between atoms: _241  and  _242
REMARK  102  A    between atoms: _242  and  _243
REMARK  103  A    between atoms: _252  and  _254
REMARK  104  A    between atoms: _254  and  _255
REMARK  105  A    between atoms: _254  and  _257
REMARK  106  A    between atoms: _257  and  _258
REMARK  107  A    between atoms: _263  and  _265
REMARK  108  A    between atoms: _265  and  _266
REMARK  109  A    between atoms: _265  and  _268
REMARK  110  A    between atoms: _268  and  _269
REMARK  111  A    between atoms: _269  and  _270
REMARK  112  A    between atoms: _270  and  _271
REMARK  113  A    between atoms: _280  and  _282
REMARK  114  A    between atoms: _282  and  _283
REMARK  115  A    between atoms: _282  and  _285
REMARK  116  A    between atoms: _285  and  _286
REMARK  117  A    between atoms: _289  and  _291
REMARK  118  A    between atoms: _291  and  _292
REMARK  119  A    between atoms: _291  and  _294
REMARK  120  A    between atoms: _294  and  _295
REMARK  121  A    between atoms: _298  and  _300
REMARK  122  A    between atoms: _300  and  _301
REMARK  123  A    between atoms: _300  and  _303
REMARK  124  A    between atoms: _303  and  _304
REMARK  125  A    between atoms: _307  and  _309
REMARK  126  A    between atoms: _309  and  _310
REMARK  127  A    between atoms: _309  and  _312
REMARK  128  A    between atoms: _312  and  _313
REMARK  129  A    between atoms: _316  and  _318
REMARK  130  A    between atoms: _318  and  _319
REMARK  131  A    between atoms: _321  and  _323
REMARK  132  A    between atoms: _323  and  _324
REMARK  133  A    between atoms: _327  and  _329
REMARK  134  A    between atoms: _329  and  _330
REMARK  135  A    between atoms: _329  and  _332
REMARK  136  A    between atoms: _332  and  _333
REMARK  137  A    between atoms: _336  and  _338
REMARK  138  A    between atoms: _338  and  _339
REMARK  139  A    between atoms: _338  and  _341
REMARK  140  A    between atoms: _341  and  _342
REMARK  141  A    between atoms: _345  and  _347
REMARK  142  A    between atoms: _347  and  _348
REMARK  143  A    between atoms: _347  and  _350
REMARK  144  A    between atoms: _350  and  _351
REMARK  145  A    between atoms: _354  and  _356
REMARK  146  A    between atoms: _356  and  _357
REMARK  147  A    between atoms: _356  and  _359
REMARK  148  A    between atoms: _362  and  _364
REMARK  149  A    between atoms: _364  and  _365
REMARK  150  A    between atoms: _364  and  _367
REMARK  151  A    between atoms: _367  and  _368
REMARK  152  A    between atoms: _368  and  _369
REMARK  153  A    between atoms: _369  and  _370
REMARK  154  A    between atoms: _370  and  _371
REMARK  155  A    between atoms: _375  and  _377
REMARK  156  A    between atoms: _377  and  _378
REMARK  157  A    between atoms: _377  and  _380
REMARK  158  A    between atoms: _380  and  _381
REMARK  159  A    between atoms: _381  and  _382
REMARK  160  A    between atoms: _384  and  _386
REMARK  161  A    between atoms: _386  and  _387
REMARK  162  A    between atoms: _386  and  _389
REMARK  163  A    between atoms: _389  and  _390
REMARK  164  A    between atoms: _393  and  _395
REMARK  165  A    between atoms: _395  and  _396
REMARK  166  A    between atoms: _398  and  _400
REMARK  167  A    between atoms: _400  and  _401
REMARK  168  A    between atoms: _403  and  _405
REMARK  169  A    between atoms: _405  and  _406
REMARK  170  A    between atoms: _405  and  _408
REMARK  171  A    between atoms: _408  and  _409
REMARK  172  A    between atoms: _412  and  _414
REMARK  173  A    between atoms: _414  and  _415
REMARK  174  A    between atoms: _417  and  _419
REMARK  175  A    between atoms: _419  and  _420
REMARK  176  A    between atoms: _422  and  _424
REMARK  177  A    between atoms: _424  and  _425
REMARK  178  A    between atoms: _424  and  _427
REMARK  179  A    between atoms: _427  and  _428
REMARK  180  A    between atoms: _434  and  _436
REMARK  181  A    between atoms: _436  and  _437
REMARK  182  A    between atoms: _436  and  _439
REMARK  183  A    between atoms: _439  and  _440
REMARK  184  A    between atoms: _443  and  _445
REMARK  185  A    between atoms: _445  and  _446
REMARK  186  A    between atoms: _445  and  _448
REMARK  187  A    between atoms: _448  and  _449
REMARK  188  A    between atoms: _452  and  _454
REMARK  189  A    between atoms: _454  and  _455
REMARK  190  A    between atoms: _454  and  _457
REMARK  191  A    between atoms: _457  and  _458
REMARK  192  A    between atoms: _462  and  _463
REMARK  193  A    between atoms: _468  and  _470
REMARK  194  A    between atoms: _470  and  _471
REMARK  195  A    between atoms: _470  and  _473
REMARK  196  A    between atoms: _476  and  _478
REMARK  197  A    between atoms: _478  and  _479
REMARK  198  A    between atoms: _478  and  _481
REMARK  199  A    between atoms: _481  and  _482
REMARK  200  A    between atoms: _487  and  _489
REMARK  201  A    between atoms: _489  and  _490
REMARK  202  A    between atoms: _489  and  _492
REMARK  203  A    between atoms: _492  and  _493
REMARK  204  A    between atoms: _496  and  _498
REMARK  205  A    between atoms: _498  and  _499
REMARK  206  A    between atoms: _498  and  _501
REMARK  207  A    between atoms: _501  and  _502
REMARK  208  A    between atoms: _505  and  _507
REMARK  209  A    between atoms: _507  and  _508
REMARK  210  A    between atoms: _510  and  _512
REMARK  211  A    between atoms: _512  and  _513
REMARK  212  A    between atoms: _512  and  _515
REMARK  213  A    between atoms: _515  and  _516
REMARK  214  A    between atoms: _516  and  _517
REMARK  215  A    between atoms: _517  and  _518
REMARK  216  A    between atoms: _527  and  _529
REMARK  217  A    between atoms: _529  and  _530
REMARK  218  A    between atoms: _529  and  _532
REMARK  219  A    between atoms: _532  and  _533
REMARK                            x       y       z     vdW  Elec       q    Type
REMARK                         _______ _______ _______ _____ _____    ______ ____
ROOT
ATOM      1  O   HOH     1      14.449  39.556  20.234  0.00  0.00    +0.000 OA
ENDROOT
TORSDOF 0
REMARK  Name = ../refined-set-2016/2psu/2psu_pocket.pdb
REMARK  219 active torsions:
REMARK  status: ('A' for Active; 'I' for Inactive)
REMARK    1  A    between atoms: _1  and  _3
REMARK    2  A    between atoms: _3  and  _4
REMARK    3  A    between atoms: _3  and  _6
REMARK    4  A    between atoms: _6  and  _7
REMARK    5  A    between atoms: _7  and  _8
REMARK    6  A    between atoms: _8  and  _9
REMARK    7  A    between atoms: _18  and  _20
REMARK    8  A    between atoms: _20  and  _21
REMARK    9  A    between atoms: _20  and  _23
REMARK   10  A    between atoms: _23  and  _24
REMARK   11  A    between atoms: _27  and  _29
REMARK   12  A    between atoms: _29  and  _30
REMARK   13  A    between atoms: _29  and  _32
REMARK   14  A    between atoms: _32  and  _33
REMARK   15  A    between atoms: _36  and  _38
REMARK   16  A    between atoms: _38  and  _39
REMARK   17  A    between atoms: _38  and  _41
REMARK   18  A    between atoms: _41  and  _42
REMARK   19  A    between atoms: _45  and  _47
REMARK   20  A    between atoms: _47  and  _48
REMARK   21  A    between atoms: _47  and  _50
REMARK   22  A    between atoms: _50  and  _51
REMARK   23  A    between atoms: _54  and  _56
REMARK   24  A    between atoms: _56  and  _57
REMARK   25  A    between atoms: _59  and  _61
REMARK   26  A    between atoms: _61  and  _62
REMARK   27  A    between atoms: _65  and  _67
REMARK   28  A    between atoms: _67  and  _68
REMARK   29  A    between atoms: _67  and  _70
REMARK   30  A    between atoms: _70  and  _71
REMARK   31  A    between atoms: _74  and  _76
REMARK   32  A    between atoms: _76  and  _77
REMARK   33  A    between atoms: _76  and  _79
REMARK   34  A    between atoms: _79  and  _80
REMARK   35  A    between atoms: _83  and  _85
REMARK   36  A    between atoms: _85  and  _86
REMARK   37  A    between atoms: _85  and  _88
REMARK   38  A    between atoms: _88  and  _89
REMARK   39  A    between atoms: _92  and  _94
REMARK   40  A    between atoms: _94  and  _95
REMARK   41  A    between atoms: _94  and  _97
REMARK   42  A    between atoms: _100  and  _102
REMARK   43  A    between atoms: _102  and  _103
REMARK   44  A    between atoms: _102  and  _105
REMARK   45  A    between atoms: _105  and  _106
REMARK   46  A    between atoms: _106  and  _107
REMARK   47  A    between atoms: _109  and  _111
REMARK   48  A    between atoms: _111  and  _112
REMARK   49  A    between atoms: _111  and  _114
REMARK   50  A    between atoms: _114  and  _115
REMARK   51  A    between atoms: _118  and  _120
REMARK   52  A    between atoms: _120  and  _121
REMARK   53  A    between atoms: _123  and  _125
REMARK   54  A    between atoms: _125  and  _126
REMARK   55  A    between atoms: _128  and  _130
REMARK   56  A    between atoms: _130  and  _131
REMARK   57  A    between atoms: _130  and  _133
REMARK   58  A    between atoms: _133  and  _134
REMARK   59  A    between atoms: _137  and  _139
REMARK   60  A    between atoms: _139  and  _140
REMARK   61  A    between atoms: _142  and  _144
REMARK   62  A    between atoms: _144  and  _145
REMARK   63  A    between atoms: _147  and  _149
REMARK   64  A    between atoms: _149  and  _150
REMARK   65  A    between atoms: _149  and  _152
REMARK   66  A    between atoms: _152  and  _153
REMARK   67  A    between atoms: _159  and  _161
REMARK   68  A    between atoms: _161  and  _162
REMARK   69  A    between atoms: _161  and  _164
REMARK   70  A    between atoms: _164  and  _165
REMARK   71  A    between atoms: _168  and  _170
REMARK   72  A    between atoms: _170  and  _171
REMARK   73  A    between atoms: _170  and  _173
REMARK   74  A    between atoms: _173  and  _174
REMARK   75  A    between atoms: _177  and  _179
REMARK   76  A    between atoms: _179  and  _180
REMARK   77  A    between atoms: _179  and  _182
REMARK   78  A    between atoms: _182  and  _183
REMARK   79  A    between atoms: _187  and  _188
REMARK   80  A    between atoms: _193  and  _195
REMARK   81  A    between atoms: _195  and  _196
REMARK   82  A    between atoms: _195  and  _198
REMARK   83  A    between atoms: _201  and  _203
REMARK   84  A    between atoms: _203  and  _204
REMARK   85  A    between atoms: _203  and  _206
REMARK   86  A    between atoms: _206  and  _207
REMARK   87  A    between atoms: _212  and  _214
REMARK   88  A    between atoms: _214  and  _215
REMARK   89  A    between atoms: _214  and  _217
REMARK   90  A    between atoms: _217  and  _218
REMARK   91  A    between atoms: _221  and  _223
REMARK   92  A    between atoms: _223  and  _224
REMARK   93  A    between atoms: _223  and  _226
REMARK   94  A    between atoms: _226  and  _227
REMARK   95  A    between atoms: _230  and  _232
REMARK   96  A    between atoms: _232  and  _233
REMARK   97  A    between atoms: _235  and  _237
REMARK   98  A    between atoms: _237  and  _238
REMARK   99  A    between atoms: _237  and  _240
REMARK  100  A    between atoms: _240  and  _241
REMARK  101  A    between atoms: _241  and  _242
REMARK  102  A    between atoms: _242  and  _243
REMARK  103  A    between atoms: _252  and  _254
REMARK  104  A    between atoms: _254  and  _255
REMARK  105  A    between atoms: _254  and  _257
REMARK  106  A    between atoms: _257  and  _258
REMARK  107  A    between atoms: _263  and  _265
REMARK  108  A    between atoms: _265  and  _266
REMARK  109  A    between atoms: _265  and  _268
REMARK  110  A    between atoms: _268  and  _269
REMARK  111  A    between atoms: _269  and  _270
REMARK  112  A    between atoms: _270  and  _271
REMARK  113  A    between atoms: _280  and  _282
REMARK  114  A    between atoms: _282  and  _283
REMARK  115  A    between atoms: _282  and  _285
REMARK  116  A    between atoms: _285  and  _286
REMARK  117  A    between atoms: _289  and  _291
REMARK  118  A    between atoms: _291  and  _292
REMARK  119  A    between atoms: _291  and  _294
REMARK  120  A    between atoms: _294  and  _295
REMARK  121  A    between atoms: _298  and  _300
REMARK  122  A    between atoms: _300  and  _301
REMARK  123  A    between atoms: _300  and  _303
REMARK  124  A    between atoms: _303  and  _304
REMARK  125  A    between atoms: _307  and  _309
REMARK  126  A    between atoms: _309  and  _310
REMARK  127  A    between atoms: _309  and  _312
REMARK  128  A    between atoms: _312  and  _313
REMARK  129  A    between atoms: _316  and  _318
REMARK  130  A    between atoms: _318  and  _319
REMARK  131  A    between atoms: _321  and  _323
REMARK  132  A    between atoms: _323  and  _324
REMARK  133  A    between atoms: _327  and  _329
REMARK  134  A    between atoms: _329  and  _330
REMARK  135  A    between atoms: _329  and  _332
REMARK  136  A    between atoms: _332  and  _333
REMARK  137  A    between atoms: _336  and  _338
REMARK  138  A    between atoms: _338  and  _339
REMARK  139  A    between atoms: _338  and  _341
REMARK  140  A    between atoms: _341  and  _342
REMARK  141  A    between atoms: _345  and  _347
REMARK  142  A    between atoms: _347  and  _348
REMARK  143  A    between atoms: _347  and  _350
REMARK  144  A    between atoms: _350  and  _351
REMARK  145  A    between atoms: _354  and  _356
REMARK  146  A    between atoms: _356  and  _357
REMARK  147  A    between atoms: _356  and  _359
REMARK  148  A    between atoms: _362  and  _364
REMARK  149  A    between atoms: _364  and  _365
REMARK  150  A    between atoms: _364  and  _367
REMARK  151  A    between atoms: _367  and  _368
REMARK  152  A    between atoms: _368  and  _369
REMARK  153  A    between atoms: _369  and  _370
REMARK  154  A    between atoms: _370  and  _371
REMARK  155  A    between atoms: _375  and  _377
REMARK  156  A    between atoms: _377  and  _378
REMARK  157  A    between atoms: _377  and  _380
REMARK  158  A    between atoms: _380  and  _381
REMARK  159  A    between atoms: _381  and  _382
REMARK  160  A    between atoms: _384  and  _386
REMARK  161  A    between atoms: _386  and  _387
REMARK  162  A    between atoms: _386  and  _389
REMARK  163  A    between atoms: _389  and  _390
REMARK  164  A    between atoms: _393  and  _395
REMARK  165  A    between atoms: _395  and  _396
REMARK  166  A    between atoms: _398  and  _400
REMARK  167  A    between atoms: _400  and  _401
REMARK  168  A    between atoms: _403  and  _405
REMARK  169  A    between atoms: _405  and  _406
REMARK  170  A    between atoms: _405  and  _408
REMARK  171  A    between atoms: _408  and  _409
REMARK  172  A    between atoms: _412  and  _414
REMARK  173  A    between atoms: _414  and  _415
REMARK  174  A    between atoms: _417  and  _419
REMARK  175  A    between atoms: _419  and  _420
REMARK  176  A    between atoms: _422  and  _424
REMARK  177  A    between atoms: _424  and  _425
REMARK  178  A    between atoms: _424  and  _427
REMARK  179  A    between atoms: _427  and  _428
REMARK  180  A    between atoms: _434  and  _436
REMARK  181  A    between atoms: _436  and  _437
REMARK  182  A    between atoms: _436  and  _439
REMARK  183  A    between atoms: _439  and  _440
REMARK  184  A    between atoms: _443  and  _445
REMARK  185  A    between atoms: _445  and  _446
REMARK  186  A    between atoms: _445  and  _448
REMARK  187  A    between atoms: _448  and  _449
REMARK  188  A    between atoms: _452  and  _454
REMARK  189  A    between atoms: _454  and  _455
REMARK  190  A    between atoms: _454  and  _457
REMARK  191  A    between atoms: _457  and  _458
REMARK  192  A    between atoms: _462  and  _463
REMARK  193  A    between atoms: _468  and  _470
REMARK  194  A    between atoms: _470  and  _471
REMARK  195  A    between atoms: _470  and  _473
REMARK  196  A    between atoms: _476  and  _478
REMARK  197  A    between atoms: _478  and  _479
REMARK  198  A    between atoms: _478  and  _481
REMARK  199  A    between atoms: _481  and  _482
REMARK  200  A    between atoms: _487  and  _489
REMARK  201  A    between atoms: _489  and  _490
REMARK  202  A    between atoms: _489  and  _492
REMARK  203  A    between atoms: _492  and  _493
REMARK  204  A    between atoms: _496  and  _498
REMARK  205  A    between atoms: _498  and  _499
REMARK  206  A    between atoms: _498  and  _501
REMARK  207  A    between atoms: _501  and  _502
REMARK  208  A    between atoms: _505  and  _507
REMARK  209  A    between atoms: _507  and  _508
REMARK  210  A    between atoms: _510  and  _512
REMARK  211  A    between atoms: _512  and  _513
REMARK  212  A    between atoms: _512  and  _515
REMARK  213  A    between atoms: _515  and  _516
REMARK  214  A    between atoms: _516  and  _517
REMARK  215  A    between atoms: _517  and  _518
REMARK  216  A    between atoms: _527  and  _529
REMARK  217  A    between atoms: _529  and  _530
REMARK  218  A    between atoms: _529  and  _532
REMARK  219  A    between atoms: _532  and  _533
REMARK                            x       y       z     vdW  Elec       q    Type
REMARK                         _______ _______ _______ _____ _____    ______ ____
ROOT
ATOM      1  O   HOH     1      10.588  36.182  23.198  0.00  0.00    +0.000 OA
ENDROOT
TORSDOF 0
REMARK  Name = ../refined-set-2016/2psu/2psu_pocket.pdb
REMARK  219 active torsions:
REMARK  status: ('A' for Active; 'I' for Inactive)
REMARK    1  A    between atoms: _1  and  _3
REMARK    2  A    between atoms: _3  and  _4
REMARK    3  A    between atoms: _3  and  _6
REMARK    4  A    between atoms: _6  and  _7
REMARK    5  A    between atoms: _7  and  _8
REMARK    6  A    between atoms: _8  and  _9
REMARK    7  A    between atoms: _18  and  _20
REMARK    8  A    between atoms: _20  and  _21
REMARK    9  A    between atoms: _20  and  _23
REMARK   10  A    between atoms: _23  and  _24
REMARK   11  A    between atoms: _27  and  _29
REMARK   12  A    between atoms: _29  and  _30
REMARK   13  A    between atoms: _29  and  _32
REMARK   14  A    between atoms: _32  and  _33
REMARK   15  A    between atoms: _36  and  _38
REMARK   16  A    between atoms: _38  and  _39
REMARK   17  A    between atoms: _38  and  _41
REMARK   18  A    between atoms: _41  and  _42
REMARK   19  A    between atoms: _45  and  _47
REMARK   20  A    between atoms: _47  and  _48
REMARK   21  A    between atoms: _47  and  _50
REMARK   22  A    between atoms: _50  and  _51
REMARK   23  A    between atoms: _54  and  _56
REMARK   24  A    between atoms: _56  and  _57
REMARK   25  A    between atoms: _59  and  _61
REMARK   26  A    between atoms: _61  and  _62
REMARK   27  A    between atoms: _65  and  _67
REMARK   28  A    between atoms: _67  and  _68
REMARK   29  A    between atoms: _67  and  _70
REMARK   30  A    between atoms: _70  and  _71
REMARK   31  A    between atoms: _74  and  _76
REMARK   32  A    between atoms: _76  and  _77
REMARK   33  A    between atoms: _76  and  _79
REMARK   34  A    between atoms: _79  and  _80
REMARK   35  A    between atoms: _83  and  _85
REMARK   36  A    between atoms: _85  and  _86
REMARK   37  A    between atoms: _85  and  _88
REMARK   38  A    between atoms: _88  and  _89
REMARK   39  A    between atoms: _92  and  _94
REMARK   40  A    between atoms: _94  and  _95
REMARK   41  A    between atoms: _94  and  _97
REMARK   42  A    between atoms: _100  and  _102
REMARK   43  A    between atoms: _102  and  _103
REMARK   44  A    between atoms: _102  and  _105
REMARK   45  A    between atoms: _105  and  _106
REMARK   46  A    between atoms: _106  and  _107
REMARK   47  A    between atoms: _109  and  _111
REMARK   48  A    between atoms: _111  and  _112
REMARK   49  A    between atoms: _111  and  _114
REMARK   50  A    between atoms: _114  and  _115
REMARK   51  A    between atoms: _118  and  _120
REMARK   52  A    between atoms: _120  and  _121
REMARK   53  A    between atoms: _123  and  _125
REMARK   54  A    between atoms: _125  and  _126
REMARK   55  A    between atoms: _128  and  _130
REMARK   56  A    between atoms: _130  and  _131
REMARK   57  A    between atoms: _130  and  _133
REMARK   58  A    between atoms: _133  and  _134
REMARK   59  A    between atoms: _137  and  _139
REMARK   60  A    between atoms: _139  and  _140
REMARK   61  A    between atoms: _142  and  _144
REMARK   62  A    between atoms: _144  and  _145
REMARK   63  A    between atoms: _147  and  _149
REMARK   64  A    between atoms: _149  and  _150
REMARK   65  A    between atoms: _149  and  _152
REMARK   66  A    between atoms: _152  and  _153
REMARK   67  A    between atoms: _159  and  _161
REMARK   68  A    between atoms: _161  and  _162
REMARK   69  A    between atoms: _161  and  _164
REMARK   70  A    between atoms: _164  and  _165
REMARK   71  A    between atoms: _168  and  _170
REMARK   72  A    between atoms: _170  and  _171
REMARK   73  A    between atoms: _170  and  _173
REMARK   74  A    between atoms: _173  and  _174
REMARK   75  A    between atoms: _177  and  _179
REMARK   76  A    between atoms: _179  and  _180
REMARK   77  A    between atoms: _179  and  _182
REMARK   78  A    between atoms: _182  and  _183
REMARK   79  A    between atoms: _187  and  _188
REMARK   80  A    between atoms: _193  and  _195
REMARK   81  A    between atoms: _195  and  _196
REMARK   82  A    between atoms: _195  and  _198
REMARK   83  A    between atoms: _201  and  _203
REMARK   84  A    between atoms: _203  and  _204
REMARK   85  A    between atoms: _203  and  _206
REMARK   86  A    between atoms: _206  and  _207
REMARK   87  A    between atoms: _212  and  _214
REMARK   88  A    between atoms: _214  and  _215
REMARK   89  A    between atoms: _214  and  _217
REMARK   90  A    between atoms: _217  and  _218
REMARK   91  A    between atoms: _221  and  _223
REMARK   92  A    between atoms: _223  and  _224
REMARK   93  A    between atoms: _223  and  _226
REMARK   94  A    between atoms: _226  and  _227
REMARK   95  A    between atoms: _230  and  _232
REMARK   96  A    between atoms: _232  and  _233
REMARK   97  A    between atoms: _235  and  _237
REMARK   98  A    between atoms: _237  and  _238
REMARK   99  A    between atoms: _237  and  _240
REMARK  100  A    between atoms: _240  and  _241
REMARK  101  A    between atoms: _241  and  _242
REMARK  102  A    between atoms: _242  and  _243
REMARK  103  A    between atoms: _252  and  _254
REMARK  104  A    between atoms: _254  and  _255
REMARK  105  A    between atoms: _254  and  _257
REMARK  106  A    between atoms: _257  and  _258
REMARK  107  A    between atoms: _263  and  _265
REMARK  108  A    between atoms: _265  and  _266
REMARK  109  A    between atoms: _265  and  _268
REMARK  110  A    between atoms: _268  and  _269
REMARK  111  A    between atoms: _269  and  _270
REMARK  112  A    between atoms: _270  and  _271
REMARK  113  A    between atoms: _280  and  _282
REMARK  114  A    between atoms: _282  and  _283
REMARK  115  A    between atoms: _282  and  _285
REMARK  116  A    between atoms: _285  and  _286
REMARK  117  A    between atoms: _289  and  _291
REMARK  118  A    between atoms: _291  and  _292
REMARK  119  A    between atoms: _291  and  _294
REMARK  120  A    between atoms: _294  and  _295
REMARK  121  A    between atoms: _298  and  _300
REMARK  122  A    between atoms: _300  and  _301
REMARK  123  A    between atoms: _300  and  _303
REMARK  124  A    between atoms: _303  and  _304
REMARK  125  A    between atoms: _307  and  _309
REMARK  126  A    between atoms: _309  and  _310
REMARK  127  A    between atoms: _309  and  _312
REMARK  128  A    between atoms: _312  and  _313
REMARK  129  A    between atoms: _316  and  _318
REMARK  130  A    between atoms: _318  and  _319
REMARK  131  A    between atoms: _321  and  _323
REMARK  132  A    between atoms: _323  and  _324
REMARK  133  A    between atoms: _327  and  _329
REMARK  134  A    between atoms: _329  and  _330
REMARK  135  A    between atoms: _329  and  _332
REMARK  136  A    between atoms: _332  and  _333
REMARK  137  A    between atoms: _336  and  _338
REMARK  138  A    between atoms: _338  and  _339
REMARK  139  A    between atoms: _338  and  _341
REMARK  140  A    between atoms: _341  and  _342
REMARK  141  A    between atoms: _345  and  _347
REMARK  142  A    between atoms: _347  and  _348
REMARK  143  A    between atoms: _347  and  _350
REMARK  144  A    between atoms: _350  and  _351
REMARK  145  A    between atoms: _354  and  _356
REMARK  146  A    between atoms: _356  and  _357
REMARK  147  A    between atoms: _356  and  _359
REMARK  148  A    between atoms: _362  and  _364
REMARK  149  A    between atoms: _364  and  _365
REMARK  150  A    between atoms: _364  and  _367
REMARK  151  A    between atoms: _367  and  _368
REMARK  152  A    between atoms: _368  and  _369
REMARK  153  A    between atoms: _369  and  _370
REMARK  154  A    between atoms: _370  and  _371
REMARK  155  A    between atoms: _375  and  _377
REMARK  156  A    between atoms: _377  and  _378
REMARK  157  A    between atoms: _377  and  _380
REMARK  158  A    between atoms: _380  and  _381
REMARK  159  A    between atoms: _381  and  _382
REMARK  160  A    between atoms: _384  and  _386
REMARK  161  A    between atoms: _386  and  _387
REMARK  162  A    between atoms: _386  and  _389
REMARK  163  A    between atoms: _389  and  _390
REMARK  164  A    between atoms: _393  and  _395
REMARK  165  A    between atoms: _395  and  _396
REMARK  166  A    between atoms: _398  and  _400
REMARK  167  A    between atoms: _400  and  _401
REMARK  168  A    between atoms: _403  and  _405
REMARK  169  A    between atoms: _405  and  _406
REMARK  170  A    between atoms: _405  and  _408
REMARK  171  A    between atoms: _408  and  _409
REMARK  172  A    between atoms: _412  and  _414
REMARK  173  A    between atoms: _414  and  _415
REMARK  174  A    between atoms: _417  and  _419
REMARK  175  A    between atoms: _419  and  _420
REMARK  176  A    between atoms: _422  and  _424
REMARK  177  A    between atoms: _424  and  _425
REMARK  178  A    between atoms: _424  and  _427
REMARK  179  A    between atoms: _427  and  _428
REMARK  180  A    between atoms: _434  and  _436
REMARK  181  A    between atoms: _436  and  _437
REMARK  182  A    between atoms: _436  and  _439
REMARK  183  A    between atoms: _439  and  _440
REMARK  184  A    between atoms: _443  and  _445
REMARK  185  A    between atoms: _445  and  _446
REMARK  186  A    between atoms: _445  and  _448
REMARK  187  A    between atoms: _448  and  _449
REMARK  188  A    between atoms: _452  and  _454
REMARK  189  A    between atoms: _454  and  _455
REMARK  190  A    between atoms: _454  and  _457
REMARK  191  A    between atoms: _457  and  _458
REMARK  192  A    between atoms: _462  and  _463
REMARK  193  A    between atoms: _468  and  _470
REMARK  194  A    between atoms: _470  and  _471
REMARK  195  A    between atoms: _470  and  _473
REMARK  196  A    between atoms: _476  and  _478
REMARK  197  A    between atoms: _478  and  _479
REMARK  198  A    between atoms: _478  and  _481
REMARK  199  A    between atoms: _481  and  _482
REMARK  200  A    between atoms: _487  and  _489
REMARK  201  A    between atoms: _489  and  _490
REMARK  202  A    between atoms: _489  and  _492
REMARK  203  A    between atoms: _492  and  _493
REMARK  204  A    between atoms: _496  and  _498
REMARK  205  A    between atoms: _498  and  _499
REMARK  206  A    between atoms: _498  and  _501
REMARK  207  A    between atoms: _501  and  _502
REMARK  208  A    between atoms: _505  and  _507
REMARK  209  A    between atoms: _507  and  _508
REMARK  210  A    between atoms: _510  and  _512
REMARK  211  A    between atoms: _512  and  _513
REMARK  212  A    between atoms: _512  and  _515
REMARK  213  A    between atoms: _515  and  _516
REMARK  214  A    between atoms: _516  and  _517
REMARK  215  A    between atoms: _517  and  _518
REMARK  216  A    between atoms: _527  and  _529
REMARK  217  A    between atoms: _529  and  _530
REMARK  218  A    between atoms: _529  and  _532
REMARK  219  A    between atoms: _532  and  _533
REMARK                            x       y       z     vdW  Elec       q    Type
REMARK                         _______ _______ _______ _____ _____    ______ ____
ROOT
ATOM      1  O   HOH     1      17.580  40.165  16.020  0.00  0.00    +0.000 OA
ENDROOT
TORSDOF 0
REMARK  Name = ../refined-set-2016/2psu/2psu_pocket.pdb
REMARK  219 active torsions:
REMARK  status: ('A' for Active; 'I' for Inactive)
REMARK    1  A    between atoms: _1  and  _3
REMARK    2  A    between atoms: _3  and  _4
REMARK    3  A    between atoms: _3  and  _6
REMARK    4  A    between atoms: _6  and  _7
REMARK    5  A    between atoms: _7  and  _8
REMARK    6  A    between atoms: _8  and  _9
REMARK    7  A    between atoms: _18  and  _20
REMARK    8  A    between atoms: _20  and  _21
REMARK    9  A    between atoms: _20  and  _23
REMARK   10  A    between atoms: _23  and  _24
REMARK   11  A    between atoms: _27  and  _29
REMARK   12  A    between atoms: _29  and  _30
REMARK   13  A    between atoms: _29  and  _32
REMARK   14  A    between atoms: _32  and  _33
REMARK   15  A    between atoms: _36  and  _38
REMARK   16  A    between atoms: _38  and  _39
REMARK   17  A    between atoms: _38  and  _41
REMARK   18  A    between atoms: _41  and  _42
REMARK   19  A    between atoms: _45  and  _47
REMARK   20  A    between atoms: _47  and  _48
REMARK   21  A    between atoms: _47  and  _50
REMARK   22  A    between atoms: _50  and  _51
REMARK   23  A    between atoms: _54  and  _56
REMARK   24  A    between atoms: _56  and  _57
REMARK   25  A    between atoms: _59  and  _61
REMARK   26  A    between atoms: _61  and  _62
REMARK   27  A    between atoms: _65  and  _67
REMARK   28  A    between atoms: _67  and  _68
REMARK   29  A    between atoms: _67  and  _70
REMARK   30  A    between atoms: _70  and  _71
REMARK   31  A    between atoms: _74  and  _76
REMARK   32  A    between atoms: _76  and  _77
REMARK   33  A    between atoms: _76  and  _79
REMARK   34  A    between atoms: _79  and  _80
REMARK   35  A    between atoms: _83  and  _85
REMARK   36  A    between atoms: _85  and  _86
REMARK   37  A    between atoms: _85  and  _88
REMARK   38  A    between atoms: _88  and  _89
REMARK   39  A    between atoms: _92  and  _94
REMARK   40  A    between atoms: _94  and  _95
REMARK   41  A    between atoms: _94  and  _97
REMARK   42  A    between atoms: _100  and  _102
REMARK   43  A    between atoms: _102  and  _103
REMARK   44  A    between atoms: _102  and  _105
REMARK   45  A    between atoms: _105  and  _106
REMARK   46  A    between atoms: _106  and  _107
REMARK   47  A    between atoms: _109  and  _111
REMARK   48  A    between atoms: _111  and  _112
REMARK   49  A    between atoms: _111  and  _114
REMARK   50  A    between atoms: _114  and  _115
REMARK   51  A    between atoms: _118  and  _120
REMARK   52  A    between atoms: _120  and  _121
REMARK   53  A    between atoms: _123  and  _125
REMARK   54  A    between atoms: _125  and  _126
REMARK   55  A    between atoms: _128  and  _130
REMARK   56  A    between atoms: _130  and  _131
REMARK   57  A    between atoms: _130  and  _133
REMARK   58  A    between atoms: _133  and  _134
REMARK   59  A    between atoms: _137  and  _139
REMARK   60  A    between atoms: _139  and  _140
REMARK   61  A    between atoms: _142  and  _144
REMARK   62  A    between atoms: _144  and  _145
REMARK   63  A    between atoms: _147  and  _149
REMARK   64  A    between atoms: _149  and  _150
REMARK   65  A    between atoms: _149  and  _152
REMARK   66  A    between atoms: _152  and  _153
REMARK   67  A    between atoms: _159  and  _161
REMARK   68  A    between atoms: _161  and  _162
REMARK   69  A    between atoms: _161  and  _164
REMARK   70  A    between atoms: _164  and  _165
REMARK   71  A    between atoms: _168  and  _170
REMARK   72  A    between atoms: _170  and  _171
REMARK   73  A    between atoms: _170  and  _173
REMARK   74  A    between atoms: _173  and  _174
REMARK   75  A    between atoms: _177  and  _179
REMARK   76  A    between atoms: _179  and  _180
REMARK   77  A    between atoms: _179  and  _182
REMARK   78  A    between atoms: _182  and  _183
REMARK   79  A    between atoms: _187  and  _188
REMARK   80  A    between atoms: _193  and  _195
REMARK   81  A    between atoms: _195  and  _196
REMARK   82  A    between atoms: _195  and  _198
REMARK   83  A    between atoms: _201  and  _203
REMARK   84  A    between atoms: _203  and  _204
REMARK   85  A    between atoms: _203  and  _206
REMARK   86  A    between atoms: _206  and  _207
REMARK   87  A    between atoms: _212  and  _214
REMARK   88  A    between atoms: _214  and  _215
REMARK   89  A    between atoms: _214  and  _217
REMARK   90  A    between atoms: _217  and  _218
REMARK   91  A    between atoms: _221  and  _223
REMARK   92  A    between atoms: _223  and  _224
REMARK   93  A    between atoms: _223  and  _226
REMARK   94  A    between atoms: _226  and  _227
REMARK   95  A    between atoms: _230  and  _232
REMARK   96  A    between atoms: _232  and  _233
REMARK   97  A    between atoms: _235  and  _237
REMARK   98  A    between atoms: _237  and  _238
REMARK   99  A    between atoms: _237  and  _240
REMARK  100  A    between atoms: _240  and  _241
REMARK  101  A    between atoms: _241  and  _242
REMARK  102  A    between atoms: _242  and  _243
REMARK  103  A    between atoms: _252  and  _254
REMARK  104  A    between atoms: _254  and  _255
REMARK  105  A    between atoms: _254  and  _257
REMARK  106  A    between atoms: _257  and  _258
REMARK  107  A    between atoms: _263  and  _265
REMARK  108  A    between atoms: _265  and  _266
REMARK  109  A    between atoms: _265  and  _268
REMARK  110  A    between atoms: _268  and  _269
REMARK  111  A    between atoms: _269  and  _270
REMARK  112  A    between atoms: _270  and  _271
REMARK  113  A    between atoms: _280  and  _282
REMARK  114  A    between atoms: _282  and  _283
REMARK  115  A    between atoms: _282  and  _285
REMARK  116  A    between atoms: _285  and  _286
REMARK  117  A    between atoms: _289  and  _291
REMARK  118  A    between atoms: _291  and  _292
REMARK  119  A    between atoms: _291  and  _294
REMARK  120  A    between atoms: _294  and  _295
REMARK  121  A    between atoms: _298  and  _300
REMARK  122  A    between atoms: _300  and  _301
REMARK  123  A    between atoms: _300  and  _303
REMARK  124  A    between atoms: _303  and  _304
REMARK  125  A    between atoms: _307  and  _309
REMARK  126  A    between atoms: _309  and  _310
REMARK  127  A    between atoms: _309  and  _312
REMARK  128  A    between atoms: _312  and  _313
REMARK  129  A    between atoms: _316  and  _318
REMARK  130  A    between atoms: _318  and  _319
REMARK  131  A    between atoms: _321  and  _323
REMARK  132  A    between atoms: _323  and  _324
REMARK  133  A    between atoms: _327  and  _329
REMARK  134  A    between atoms: _329  and  _330
REMARK  135  A    between atoms: _329  and  _332
REMARK  136  A    between atoms: _332  and  _333
REMARK  137  A    between atoms: _336  and  _338
REMARK  138  A    between atoms: _338  and  _339
REMARK  139  A    between atoms: _338  and  _341
REMARK  140  A    between atoms: _341  and  _342
REMARK  141  A    between atoms: _345  and  _347
REMARK  142  A    between atoms: _347  and  _348
REMARK  143  A    between atoms: _347  and  _350
REMARK  144  A    between atoms: _350  and  _351
REMARK  145  A    between atoms: _354  and  _356
REMARK  146  A    between atoms: _356  and  _357
REMARK  147  A    between atoms: _356  and  _359
REMARK  148  A    between atoms: _362  and  _364
REMARK  149  A    between atoms: _364  and  _365
REMARK  150  A    between atoms: _364  and  _367
REMARK  151  A    between atoms: _367  and  _368
REMARK  152  A    between atoms: _368  and  _369
REMARK  153  A    between atoms: _369  and  _370
REMARK  154  A    between atoms: _370  and  _371
REMARK  155  A    between atoms: _375  and  _377
REMARK  156  A    between atoms: _377  and  _378
REMARK  157  A    between atoms: _377  and  _380
REMARK  158  A    between atoms: _380  and  _381
REMARK  159  A    between atoms: _381  and  _382
REMARK  160  A    between atoms: _384  and  _386
REMARK  161  A    between atoms: _386  and  _387
REMARK  162  A    between atoms: _386  and  _389
REMARK  163  A    between atoms: _389  and  _390
REMARK  164  A    between atoms: _393  and  _395
REMARK  165  A    between atoms: _395  and  _396
REMARK  166  A    between atoms: _398  and  _400
REMARK  167  A    between atoms: _400  and  _401
REMARK  168  A    between atoms: _403  and  _405
REMARK  169  A    between atoms: _405  and  _406
REMARK  170  A    between atoms: _405  and  _408
REMARK  171  A    between atoms: _408  and  _409
REMARK  172  A    between atoms: _412  and  _414
REMARK  173  A    between atoms: _414  and  _415
REMARK  174  A    between atoms: _417  and  _419
REMARK  175  A    between atoms: _419  and  _420
REMARK  176  A    between atoms: _422  and  _424
REMARK  177  A    between atoms: _424  and  _425
REMARK  178  A    between atoms: _424  and  _427
REMARK  179  A    between atoms: _427  and  _428
REMARK  180  A    between atoms: _434  and  _436
REMARK  181  A    between atoms: _436  and  _437
REMARK  182  A    between atoms: _436  and  _439
REMARK  183  A    between atoms: _439  and  _440
REMARK  184  A    between atoms: _443  and  _445
REMARK  185  A    between atoms: _445  and  _446
REMARK  186  A    between atoms: _445  and  _448
REMARK  187  A    between atoms: _448  and  _449
REMARK  188  A    between atoms: _452  and  _454
REMARK  189  A    between atoms: _454  and  _455
REMARK  190  A    between atoms: _454  and  _457
REMARK  191  A    between atoms: _457  and  _458
REMARK  192  A    between atoms: _462  and  _463
REMARK  193  A    between atoms: _468  and  _470
REMARK  194  A    between atoms: _470  and  _471
REMARK  195  A    between atoms: _470  and  _473
REMARK  196  A    between atoms: _476  and  _478
REMARK  197  A    between atoms: _478  and  _479
REMARK  198  A    between atoms: _478  and  _481
REMARK  199  A    between atoms: _481  and  _482
REMARK  200  A    between atoms: _487  and  _489
REMARK  201  A    between atoms: _489  and  _490
REMARK  202  A    between atoms: _489  and  _492
REMARK  203  A    between atoms: _492  and  _493
REMARK  204  A    between atoms: _496  and  _498
REMARK  205  A    between atoms: _498  and  _499
REMARK  206  A    between atoms: _498  and  _501
REMARK  207  A    between atoms: _501  and  _502
REMARK  208  A    between atoms: _505  and  _507
REMARK  209  A    between atoms: _507  and  _508
REMARK  210  A    between atoms: _510  and  _512
REMARK  211  A    between atoms: _512  and  _513
REMARK  212  A    between atoms: _512  and  _515
REMARK  213  A    between atoms: _515  and  _516
REMARK  214  A    between atoms: _516  and  _517
REMARK  215  A    between atoms: _517  and  _518
REMARK  216  A    between atoms: _527  and  _529
REMARK  217  A    between atoms: _529  and  _530
REMARK  218  A    between atoms: _529  and  _532
REMARK  219  A    between atoms: _532  and  _533
REMARK                            x       y       z     vdW  Elec       q    Type
REMARK                         _______ _______ _______ _____ _____    ______ ____
ROOT
ATOM      1  O   HOH     1      13.908  38.522  23.297  0.00  0.00    +0.000 OA
ENDROOT
TORSDOF 0
REMARK  Name = ../refined-set-2016/2psu/2psu_pocket.pdb
REMARK  219 active torsions:
REMARK  status: ('A' for Active; 'I' for Inactive)
REMARK    1  A    between atoms: _1  and  _3
REMARK    2  A    between atoms: _3  and  _4
REMARK    3  A    between atoms: _3  and  _6
REMARK    4  A    between atoms: _6  and  _7
REMARK    5  A    between atoms: _7  and  _8
REMARK    6  A    between atoms: _8  and  _9
REMARK    7  A    between atoms: _18  and  _20
REMARK    8  A    between atoms: _20  and  _21
REMARK    9  A    between atoms: _20  and  _23
REMARK   10  A    between atoms: _23  and  _24
REMARK   11  A    between atoms: _27  and  _29
REMARK   12  A    between atoms: _29  and  _30
REMARK   13  A    between atoms: _29  and  _32
REMARK   14  A    between atoms: _32  and  _33
REMARK   15  A    between atoms: _36  and  _38
REMARK   16  A    between atoms: _38  and  _39
REMARK   17  A    between atoms: _38  and  _41
REMARK   18  A    between atoms: _41  and  _42
REMARK   19  A    between atoms: _45  and  _47
REMARK   20  A    between atoms: _47  and  _48
REMARK   21  A    between atoms: _47  and  _50
REMARK   22  A    between atoms: _50  and  _51
REMARK   23  A    between atoms: _54  and  _56
REMARK   24  A    between atoms: _56  and  _57
REMARK   25  A    between atoms: _59  and  _61
REMARK   26  A    between atoms: _61  and  _62
REMARK   27  A    between atoms: _65  and  _67
REMARK   28  A    between atoms: _67  and  _68
REMARK   29  A    between atoms: _67  and  _70
REMARK   30  A    between atoms: _70  and  _71
REMARK   31  A    between atoms: _74  and  _76
REMARK   32  A    between atoms: _76  and  _77
REMARK   33  A    between atoms: _76  and  _79
REMARK   34  A    between atoms: _79  and  _80
REMARK   35  A    between atoms: _83  and  _85
REMARK   36  A    between atoms: _85  and  _86
REMARK   37  A    between atoms: _85  and  _88
REMARK   38  A    between atoms: _88  and  _89
REMARK   39  A    between atoms: _92  and  _94
REMARK   40  A    between atoms: _94  and  _95
REMARK   41  A    between atoms: _94  and  _97
REMARK   42  A    between atoms: _100  and  _102
REMARK   43  A    between atoms: _102  and  _103
REMARK   44  A    between atoms: _102  and  _105
REMARK   45  A    between atoms: _105  and  _106
REMARK   46  A    between atoms: _106  and  _107
REMARK   47  A    between atoms: _109  and  _111
REMARK   48  A    between atoms: _111  and  _112
REMARK   49  A    between atoms: _111  and  _114
REMARK   50  A    between atoms: _114  and  _115
REMARK   51  A    between atoms: _118  and  _120
REMARK   52  A    between atoms: _120  and  _121
REMARK   53  A    between atoms: _123  and  _125
REMARK   54  A    between atoms: _125  and  _126
REMARK   55  A    between atoms: _128  and  _130
REMARK   56  A    between atoms: _130  and  _131
REMARK   57  A    between atoms: _130  and  _133
REMARK   58  A    between atoms: _133  and  _134
REMARK   59  A    between atoms: _137  and  _139
REMARK   60  A    between atoms: _139  and  _140
REMARK   61  A    between atoms: _142  and  _144
REMARK   62  A    between atoms: _144  and  _145
REMARK   63  A    between atoms: _147  and  _149
REMARK   64  A    between atoms: _149  and  _150
REMARK   65  A    between atoms: _149  and  _152
REMARK   66  A    between atoms: _152  and  _153
REMARK   67  A    between atoms: _159  and  _161
REMARK   68  A    between atoms: _161  and  _162
REMARK   69  A    between atoms: _161  and  _164
REMARK   70  A    between atoms: _164  and  _165
REMARK   71  A    between atoms: _168  and  _170
REMARK   72  A    between atoms: _170  and  _171
REMARK   73  A    between atoms: _170  and  _173
REMARK   74  A    between atoms: _173  and  _174
REMARK   75  A    between atoms: _177  and  _179
REMARK   76  A    between atoms: _179  and  _180
REMARK   77  A    between atoms: _179  and  _182
REMARK   78  A    between atoms: _182  and  _183
REMARK   79  A    between atoms: _187  and  _188
REMARK   80  A    between atoms: _193  and  _195
REMARK   81  A    between atoms: _195  and  _196
REMARK   82  A    between atoms: _195  and  _198
REMARK   83  A    between atoms: _201  and  _203
REMARK   84  A    between atoms: _203  and  _204
REMARK   85  A    between atoms: _203  and  _206
REMARK   86  A    between atoms: _206  and  _207
REMARK   87  A    between atoms: _212  and  _214
REMARK   88  A    between atoms: _214  and  _215
REMARK   89  A    between atoms: _214  and  _217
REMARK   90  A    between atoms: _217  and  _218
REMARK   91  A    between atoms: _221  and  _223
REMARK   92  A    between atoms: _223  and  _224
REMARK   93  A    between atoms: _223  and  _226
REMARK   94  A    between atoms: _226  and  _227
REMARK   95  A    between atoms: _230  and  _232
REMARK   96  A    between atoms: _232  and  _233
REMARK   97  A    between atoms: _235  and  _237
REMARK   98  A    between atoms: _237  and  _238
REMARK   99  A    between atoms: _237  and  _240
REMARK  100  A    between atoms: _240  and  _241
REMARK  101  A    between atoms: _241  and  _242
REMARK  102  A    between atoms: _242  and  _243
REMARK  103  A    between atoms: _252  and  _254
REMARK  104  A    between atoms: _254  and  _255
REMARK  105  A    between atoms: _254  and  _257
REMARK  106  A    between atoms: _257  and  _258
REMARK  107  A    between atoms: _263  and  _265
REMARK  108  A    between atoms: _265  and  _266
REMARK  109  A    between atoms: _265  and  _268
REMARK  110  A    between atoms: _268  and  _269
REMARK  111  A    between atoms: _269  and  _270
REMARK  112  A    between atoms: _270  and  _271
REMARK  113  A    between atoms: _280  and  _282
REMARK  114  A    between atoms: _282  and  _283
REMARK  115  A    between atoms: _282  and  _285
REMARK  116  A    between atoms: _285  and  _286
REMARK  117  A    between atoms: _289  and  _291
REMARK  118  A    between atoms: _291  and  _292
REMARK  119  A    between atoms: _291  and  _294
REMARK  120  A    between atoms: _294  and  _295
REMARK  121  A    between atoms: _298  and  _300
REMARK  122  A    between atoms: _300  and  _301
REMARK  123  A    between atoms: _300  and  _303
REMARK  124  A    between atoms: _303  and  _304
REMARK  125  A    between atoms: _307  and  _309
REMARK  126  A    between atoms: _309  and  _310
REMARK  127  A    between atoms: _309  and  _312
REMARK  128  A    between atoms: _312  and  _313
REMARK  129  A    between atoms: _316  and  _318
REMARK  130  A    between atoms: _318  and  _319
REMARK  131  A    between atoms: _321  and  _323
REMARK  132  A    between atoms: _323  and  _324
REMARK  133  A    between atoms: _327  and  _329
REMARK  134  A    between atoms: _329  and  _330
REMARK  135  A    between atoms: _329  and  _332
REMARK  136  A    between atoms: _332  and  _333
REMARK  137  A    between atoms: _336  and  _338
REMARK  138  A    between atoms: _338  and  _339
REMARK  139  A    between atoms: _338  and  _341
REMARK  140  A    between atoms: _341  and  _342
REMARK  141  A    between atoms: _345  and  _347
REMARK  142  A    between atoms: _347  and  _348
REMARK  143  A    between atoms: _347  and  _350
REMARK  144  A    between atoms: _350  and  _351
REMARK  145  A    between atoms: _354  and  _356
REMARK  146  A    between atoms: _356  and  _357
REMARK  147  A    between atoms: _356  and  _359
REMARK  148  A    between atoms: _362  and  _364
REMARK  149  A    between atoms: _364  and  _365
REMARK  150  A    between atoms: _364  and  _367
REMARK  151  A    between atoms: _367  and  _368
REMARK  152  A    between atoms: _368  and  _369
REMARK  153  A    between atoms: _369  and  _370
REMARK  154  A    between atoms: _370  and  _371
REMARK  155  A    between atoms: _375  and  _377
REMARK  156  A    between atoms: _377  and  _378
REMARK  157  A    between atoms: _377  and  _380
REMARK  158  A    between atoms: _380  and  _381
REMARK  159  A    between atoms: _381  and  _382
REMARK  160  A    between atoms: _384  and  _386
REMARK  161  A    between atoms: _386  and  _387
REMARK  162  A    between atoms: _386  and  _389
REMARK  163  A    between atoms: _389  and  _390
REMARK  164  A    between atoms: _393  and  _395
REMARK  165  A    between atoms: _395  and  _396
REMARK  166  A    between atoms: _398  and  _400
REMARK  167  A    between atoms: _400  and  _401
REMARK  168  A    between atoms: _403  and  _405
REMARK  169  A    between atoms: _405  and  _406
REMARK  170  A    between atoms: _405  and  _408
REMARK  171  A    between atoms: _408  and  _409
REMARK  172  A    between atoms: _412  and  _414
REMARK  173  A    between atoms: _414  and  _415
REMARK  174  A    between atoms: _417  and  _419
REMARK  175  A    between atoms: _419  and  _420
REMARK  176  A    between atoms: _422  and  _424
REMARK  177  A    between atoms: _424  and  _425
REMARK  178  A    between atoms: _424  and  _427
REMARK  179  A    between atoms: _427  and  _428
REMARK  180  A    between atoms: _434  and  _436
REMARK  181  A    between atoms: _436  and  _437
REMARK  182  A    between atoms: _436  and  _439
REMARK  183  A    between atoms: _439  and  _440
REMARK  184  A    between atoms: _443  and  _445
REMARK  185  A    between atoms: _445  and  _446
REMARK  186  A    between atoms: _445  and  _448
REMARK  187  A    between atoms: _448  and  _449
REMARK  188  A    between atoms: _452  and  _454
REMARK  189  A    between atoms: _454  and  _455
REMARK  190  A    between atoms: _454  and  _457
REMARK  191  A    between atoms: _457  and  _458
REMARK  192  A    between atoms: _462  and  _463
REMARK  193  A    between atoms: _468  and  _470
REMARK  194  A    between atoms: _470  and  _471
REMARK  195  A    between atoms: _470  and  _473
REMARK  196  A    between atoms: _476  and  _478
REMARK  197  A    between atoms: _478  and  _479
REMARK  198  A    between atoms: _478  and  _481
REMARK  199  A    between atoms: _481  and  _482
REMARK  200  A    between atoms: _487  and  _489
REMARK  201  A    between atoms: _489  and  _490
REMARK  202  A    between atoms: _489  and  _492
REMARK  203  A    between atoms: _492  and  _493
REMARK  204  A    between atoms: _496  and  _498
REMARK  205  A    between atoms: _498  and  _499
REMARK  206  A    between atoms: _498  and  _501
REMARK  207  A    between atoms: _501  and  _502
REMARK  208  A    between atoms: _505  and  _507
REMARK  209  A    between atoms: _507  and  _508
REMARK  210  A    between atoms: _510  and  _512
REMARK  211  A    between atoms: _512  and  _513
REMARK  212  A    between atoms: _512  and  _515
REMARK  213  A    between atoms: _515  and  _516
REMARK  214  A    between atoms: _516  and  _517
REMARK  215  A    between atoms: _517  and  _518
REMARK  216  A    between atoms: _527  and  _529
REMARK  217  A    between atoms: _529  and  _530
REMARK  218  A    between atoms: _529  and  _532
REMARK  219  A    between atoms: _532  and  _533
REMARK                            x       y       z     vdW  Elec       q    Type
REMARK                         _______ _______ _______ _____ _____    ______ ____
ROOT
ATOM      1  O   HOH     1      20.782  34.298  21.796  0.00  0.00    +0.000 OA
ENDROOT
TORSDOF 0
REMARK  Name = ../refined-set-2016/2psu/2psu_pocket.pdb
REMARK  219 active torsions:
REMARK  status: ('A' for Active; 'I' for Inactive)
REMARK    1  A    between atoms: _1  and  _3
REMARK    2  A    between atoms: _3  and  _4
REMARK    3  A    between atoms: _3  and  _6
REMARK    4  A    between atoms: _6  and  _7
REMARK    5  A    between atoms: _7  and  _8
REMARK    6  A    between atoms: _8  and  _9
REMARK    7  A    between atoms: _18  and  _20
REMARK    8  A    between atoms: _20  and  _21
REMARK    9  A    between atoms: _20  and  _23
REMARK   10  A    between atoms: _23  and  _24
REMARK   11  A    between atoms: _27  and  _29
REMARK   12  A    between atoms: _29  and  _30
REMARK   13  A    between atoms: _29  and  _32
REMARK   14  A    between atoms: _32  and  _33
REMARK   15  A    between atoms: _36  and  _38
REMARK   16  A    between atoms: _38  and  _39
REMARK   17  A    between atoms: _38  and  _41
REMARK   18  A    between atoms: _41  and  _42
REMARK   19  A    between atoms: _45  and  _47
REMARK   20  A    between atoms: _47  and  _48
REMARK   21  A    between atoms: _47  and  _50
REMARK   22  A    between atoms: _50  and  _51
REMARK   23  A    between atoms: _54  and  _56
REMARK   24  A    between atoms: _56  and  _57
REMARK   25  A    between atoms: _59  and  _61
REMARK   26  A    between atoms: _61  and  _62
REMARK   27  A    between atoms: _65  and  _67
REMARK   28  A    between atoms: _67  and  _68
REMARK   29  A    between atoms: _67  and  _70
REMARK   30  A    between atoms: _70  and  _71
REMARK   31  A    between atoms: _74  and  _76
REMARK   32  A    between atoms: _76  and  _77
REMARK   33  A    between atoms: _76  and  _79
REMARK   34  A    between atoms: _79  and  _80
REMARK   35  A    between atoms: _83  and  _85
REMARK   36  A    between atoms: _85  and  _86
REMARK   37  A    between atoms: _85  and  _88
REMARK   38  A    between atoms: _88  and  _89
REMARK   39  A    between atoms: _92  and  _94
REMARK   40  A    between atoms: _94  and  _95
REMARK   41  A    between atoms: _94  and  _97
REMARK   42  A    between atoms: _100  and  _102
REMARK   43  A    between atoms: _102  and  _103
REMARK   44  A    between atoms: _102  and  _105
REMARK   45  A    between atoms: _105  and  _106
REMARK   46  A    between atoms: _106  and  _107
REMARK   47  A    between atoms: _109  and  _111
REMARK   48  A    between atoms: _111  and  _112
REMARK   49  A    between atoms: _111  and  _114
REMARK   50  A    between atoms: _114  and  _115
REMARK   51  A    between atoms: _118  and  _120
REMARK   52  A    between atoms: _120  and  _121
REMARK   53  A    between atoms: _123  and  _125
REMARK   54  A    between atoms: _125  and  _126
REMARK   55  A    between atoms: _128  and  _130
REMARK   56  A    between atoms: _130  and  _131
REMARK   57  A    between atoms: _130  and  _133
REMARK   58  A    between atoms: _133  and  _134
REMARK   59  A    between atoms: _137  and  _139
REMARK   60  A    between atoms: _139  and  _140
REMARK   61  A    between atoms: _142  and  _144
REMARK   62  A    between atoms: _144  and  _145
REMARK   63  A    between atoms: _147  and  _149
REMARK   64  A    between atoms: _149  and  _150
REMARK   65  A    between atoms: _149  and  _152
REMARK   66  A    between atoms: _152  and  _153
REMARK   67  A    between atoms: _159  and  _161
REMARK   68  A    between atoms: _161  and  _162
REMARK   69  A    between atoms: _161  and  _164
REMARK   70  A    between atoms: _164  and  _165
REMARK   71  A    between atoms: _168  and  _170
REMARK   72  A    between atoms: _170  and  _171
REMARK   73  A    between atoms: _170  and  _173
REMARK   74  A    between atoms: _173  and  _174
REMARK   75  A    between atoms: _177  and  _179
REMARK   76  A    between atoms: _179  and  _180
REMARK   77  A    between atoms: _179  and  _182
REMARK   78  A    between atoms: _182  and  _183
REMARK   79  A    between atoms: _187  and  _188
REMARK   80  A    between atoms: _193  and  _195
REMARK   81  A    between atoms: _195  and  _196
REMARK   82  A    between atoms: _195  and  _198
REMARK   83  A    between atoms: _201  and  _203
REMARK   84  A    between atoms: _203  and  _204
REMARK   85  A    between atoms: _203  and  _206
REMARK   86  A    between atoms: _206  and  _207
REMARK   87  A    between atoms: _212  and  _214
REMARK   88  A    between atoms: _214  and  _215
REMARK   89  A    between atoms: _214  and  _217
REMARK   90  A    between atoms: _217  and  _218
REMARK   91  A    between atoms: _221  and  _223
REMARK   92  A    between atoms: _223  and  _224
REMARK   93  A    between atoms: _223  and  _226
REMARK   94  A    between atoms: _226  and  _227
REMARK   95  A    between atoms: _230  and  _232
REMARK   96  A    between atoms: _232  and  _233
REMARK   97  A    between atoms: _235  and  _237
REMARK   98  A    between atoms: _237  and  _238
REMARK   99  A    between atoms: _237  and  _240
REMARK  100  A    between atoms: _240  and  _241
REMARK  101  A    between atoms: _241  and  _242
REMARK  102  A    between atoms: _242  and  _243
REMARK  103  A    between atoms: _252  and  _254
REMARK  104  A    between atoms: _254  and  _255
REMARK  105  A    between atoms: _254  and  _257
REMARK  106  A    between atoms: _257  and  _258
REMARK  107  A    between atoms: _263  and  _265
REMARK  108  A    between atoms: _265  and  _266
REMARK  109  A    between atoms: _265  and  _268
REMARK  110  A    between atoms: _268  and  _269
REMARK  111  A    between atoms: _269  and  _270
REMARK  112  A    between atoms: _270  and  _271
REMARK  113  A    between atoms: _280  and  _282
REMARK  114  A    between atoms: _282  and  _283
REMARK  115  A    between atoms: _282  and  _285
REMARK  116  A    between atoms: _285  and  _286
REMARK  117  A    between atoms: _289  and  _291
REMARK  118  A    between atoms: _291  and  _292
REMARK  119  A    between atoms: _291  and  _294
REMARK  120  A    between atoms: _294  and  _295
REMARK  121  A    between atoms: _298  and  _300
REMARK  122  A    between atoms: _300  and  _301
REMARK  123  A    between atoms: _300  and  _303
REMARK  124  A    between atoms: _303  and  _304
REMARK  125  A    between atoms: _307  and  _309
REMARK  126  A    between atoms: _309  and  _310
REMARK  127  A    between atoms: _309  and  _312
REMARK  128  A    between atoms: _312  and  _313
REMARK  129  A    between atoms: _316  and  _318
REMARK  130  A    between atoms: _318  and  _319
REMARK  131  A    between atoms: _321  and  _323
REMARK  132  A    between atoms: _323  and  _324
REMARK  133  A    between atoms: _327  and  _329
REMARK  134  A    between atoms: _329  and  _330
REMARK  135  A    between atoms: _329  and  _332
REMARK  136  A    between atoms: _332  and  _333
REMARK  137  A    between atoms: _336  and  _338
REMARK  138  A    between atoms: _338  and  _339
REMARK  139  A    between atoms: _338  and  _341
REMARK  140  A    between atoms: _341  and  _342
REMARK  141  A    between atoms: _345  and  _347
REMARK  142  A    between atoms: _347  and  _348
REMARK  143  A    between atoms: _347  and  _350
REMARK  144  A    between atoms: _350  and  _351
REMARK  145  A    between atoms: _354  and  _356
REMARK  146  A    between atoms: _356  and  _357
REMARK  147  A    between atoms: _356  and  _359
REMARK  148  A    between atoms: _362  and  _364
REMARK  149  A    between atoms: _364  and  _365
REMARK  150  A    between atoms: _364  and  _367
REMARK  151  A    between atoms: _367  and  _368
REMARK  152  A    between atoms: _368  and  _369
REMARK  153  A    between atoms: _369  and  _370
REMARK  154  A    between atoms: _370  and  _371
REMARK  155  A    between atoms: _375  and  _377
REMARK  156  A    between atoms: _377  and  _378
REMARK  157  A    between atoms: _377  and  _380
REMARK  158  A    between atoms: _380  and  _381
REMARK  159  A    between atoms: _381  and  _382
REMARK  160  A    between atoms: _384  and  _386
REMARK  161  A    between atoms: _386  and  _387
REMARK  162  A    between atoms: _386  and  _389
REMARK  163  A    between atoms: _389  and  _390
REMARK  164  A    between atoms: _393  and  _395
REMARK  165  A    between atoms: _395  and  _396
REMARK  166  A    between atoms: _398  and  _400
REMARK  167  A    between atoms: _400  and  _401
REMARK  168  A    between atoms: _403  and  _405
REMARK  169  A    between atoms: _405  and  _406
REMARK  170  A    between atoms: _405  and  _408
REMARK  171  A    between atoms: _408  and  _409
REMARK  172  A    between atoms: _412  and  _414
REMARK  173  A    between atoms: _414  and  _415
REMARK  174  A    between atoms: _417  and  _419
REMARK  175  A    between atoms: _419  and  _420
REMARK  176  A    between atoms: _422  and  _424
REMARK  177  A    between atoms: _424  and  _425
REMARK  178  A    between atoms: _424  and  _427
REMARK  179  A    between atoms: _427  and  _428
REMARK  180  A    between atoms: _434  and  _436
REMARK  181  A    between atoms: _436  and  _437
REMARK  182  A    between atoms: _436  and  _439
REMARK  183  A    between atoms: _439  and  _440
REMARK  184  A    between atoms: _443  and  _445
REMARK  185  A    between atoms: _445  and  _446
REMARK  186  A    between atoms: _445  and  _448
REMARK  187  A    between atoms: _448  and  _449
REMARK  188  A    between atoms: _452  and  _454
REMARK  189  A    between atoms: _454  and  _455
REMARK  190  A    between atoms: _454  and  _457
REMARK  191  A    between atoms: _457  and  _458
REMARK  192  A    between atoms: _462  and  _463
REMARK  193  A    between atoms: _468  and  _470
REMARK  194  A    between atoms: _470  and  _471
REMARK  195  A    between atoms: _470  and  _473
REMARK  196  A    between atoms: _476  and  _478
REMARK  197  A    between atoms: _478  and  _479
REMARK  198  A    between atoms: _478  and  _481
REMARK  199  A    between atoms: _481  and  _482
REMARK  200  A    between atoms: _487  and  _489
REMARK  201  A    between atoms: _489  and  _490
REMARK  202  A    between atoms: _489  and  _492
REMARK  203  A    between atoms: _492  and  _493
REMARK  204  A    between atoms: _496  and  _498
REMARK  205  A    between atoms: _498  and  _499
REMARK  206  A    between atoms: _498  and  _501
REMARK  207  A    between atoms: _501  and  _502
REMARK  208  A    between atoms: _505  and  _507
REMARK  209  A    between atoms: _507  and  _508
REMARK  210  A    between atoms: _510  and  _512
REMARK  211  A    between atoms: _512  and  _513
REMARK  212  A    between atoms: _512  and  _515
REMARK  213  A    between atoms: _515  and  _516
REMARK  214  A    between atoms: _516  and  _517
REMARK  215  A    between atoms: _517  and  _518
REMARK  216  A    between atoms: _527  and  _529
REMARK  217  A    between atoms: _529  and  _530
REMARK  218  A    between atoms: _529  and  _532
REMARK  219  A    between atoms: _532  and  _533
REMARK                            x       y       z     vdW  Elec       q    Type
REMARK                         _______ _______ _______ _____ _____    ______ ____
ROOT
ATOM      1  O   HOH     1      21.191  36.574  15.946  0.00  0.00    +0.000 OA
ENDROOT
TORSDOF 0
REMARK  Name = ../refined-set-2016/2psu/2psu_pocket.pdb
REMARK  219 active torsions:
REMARK  status: ('A' for Active; 'I' for Inactive)
REMARK    1  A    between atoms: _1  and  _3
REMARK    2  A    between atoms: _3  and  _4
REMARK    3  A    between atoms: _3  and  _6
REMARK    4  A    between atoms: _6  and  _7
REMARK    5  A    between atoms: _7  and  _8
REMARK    6  A    between atoms: _8  and  _9
REMARK    7  A    between atoms: _18  and  _20
REMARK    8  A    between atoms: _20  and  _21
REMARK    9  A    between atoms: _20  and  _23
REMARK   10  A    between atoms: _23  and  _24
REMARK   11  A    between atoms: _27  and  _29
REMARK   12  A    between atoms: _29  and  _30
REMARK   13  A    between atoms: _29  and  _32
REMARK   14  A    between atoms: _32  and  _33
REMARK   15  A    between atoms: _36  and  _38
REMARK   16  A    between atoms: _38  and  _39
REMARK   17  A    between atoms: _38  and  _41
REMARK   18  A    between atoms: _41  and  _42
REMARK   19  A    between atoms: _45  and  _47
REMARK   20  A    between atoms: _47  and  _48
REMARK   21  A    between atoms: _47  and  _50
REMARK   22  A    between atoms: _50  and  _51
REMARK   23  A    between atoms: _54  and  _56
REMARK   24  A    between atoms: _56  and  _57
REMARK   25  A    between atoms: _59  and  _61
REMARK   26  A    between atoms: _61  and  _62
REMARK   27  A    between atoms: _65  and  _67
REMARK   28  A    between atoms: _67  and  _68
REMARK   29  A    between atoms: _67  and  _70
REMARK   30  A    between atoms: _70  and  _71
REMARK   31  A    between atoms: _74  and  _76
REMARK   32  A    between atoms: _76  and  _77
REMARK   33  A    between atoms: _76  and  _79
REMARK   34  A    between atoms: _79  and  _80
REMARK   35  A    between atoms: _83  and  _85
REMARK   36  A    between atoms: _85  and  _86
REMARK   37  A    between atoms: _85  and  _88
REMARK   38  A    between atoms: _88  and  _89
REMARK   39  A    between atoms: _92  and  _94
REMARK   40  A    between atoms: _94  and  _95
REMARK   41  A    between atoms: _94  and  _97
REMARK   42  A    between atoms: _100  and  _102
REMARK   43  A    between atoms: _102  and  _103
REMARK   44  A    between atoms: _102  and  _105
REMARK   45  A    between atoms: _105  and  _106
REMARK   46  A    between atoms: _106  and  _107
REMARK   47  A    between atoms: _109  and  _111
REMARK   48  A    between atoms: _111  and  _112
REMARK   49  A    between atoms: _111  and  _114
REMARK   50  A    between atoms: _114  and  _115
REMARK   51  A    between atoms: _118  and  _120
REMARK   52  A    between atoms: _120  and  _121
REMARK   53  A    between atoms: _123  and  _125
REMARK   54  A    between atoms: _125  and  _126
REMARK   55  A    between atoms: _128  and  _130
REMARK   56  A    between atoms: _130  and  _131
REMARK   57  A    between atoms: _130  and  _133
REMARK   58  A    between atoms: _133  and  _134
REMARK   59  A    between atoms: _137  and  _139
REMARK   60  A    between atoms: _139  and  _140
REMARK   61  A    between atoms: _142  and  _144
REMARK   62  A    between atoms: _144  and  _145
REMARK   63  A    between atoms: _147  and  _149
REMARK   64  A    between atoms: _149  and  _150
REMARK   65  A    between atoms: _149  and  _152
REMARK   66  A    between atoms: _152  and  _153
REMARK   67  A    between atoms: _159  and  _161
REMARK   68  A    between atoms: _161  and  _162
REMARK   69  A    between atoms: _161  and  _164
REMARK   70  A    between atoms: _164  and  _165
REMARK   71  A    between atoms: _168  and  _170
REMARK   72  A    between atoms: _170  and  _171
REMARK   73  A    between atoms: _170  and  _173
REMARK   74  A    between atoms: _173  and  _174
REMARK   75  A    between atoms: _177  and  _179
REMARK   76  A    between atoms: _179  and  _180
REMARK   77  A    between atoms: _179  and  _182
REMARK   78  A    between atoms: _182  and  _183
REMARK   79  A    between atoms: _187  and  _188
REMARK   80  A    between atoms: _193  and  _195
REMARK   81  A    between atoms: _195  and  _196
REMARK   82  A    between atoms: _195  and  _198
REMARK   83  A    between atoms: _201  and  _203
REMARK   84  A    between atoms: _203  and  _204
REMARK   85  A    between atoms: _203  and  _206
REMARK   86  A    between atoms: _206  and  _207
REMARK   87  A    between atoms: _212  and  _214
REMARK   88  A    between atoms: _214  and  _215
REMARK   89  A    between atoms: _214  and  _217
REMARK   90  A    between atoms: _217  and  _218
REMARK   91  A    between atoms: _221  and  _223
REMARK   92  A    between atoms: _223  and  _224
REMARK   93  A    between atoms: _223  and  _226
REMARK   94  A    between atoms: _226  and  _227
REMARK   95  A    between atoms: _230  and  _232
REMARK   96  A    between atoms: _232  and  _233
REMARK   97  A    between atoms: _235  and  _237
REMARK   98  A    between atoms: _237  and  _238
REMARK   99  A    between atoms: _237  and  _240
REMARK  100  A    between atoms: _240  and  _241
REMARK  101  A    between atoms: _241  and  _242
REMARK  102  A    between atoms: _242  and  _243
REMARK  103  A    between atoms: _252  and  _254
REMARK  104  A    between atoms: _254  and  _255
REMARK  105  A    between atoms: _254  and  _257
REMARK  106  A    between atoms: _257  and  _258
REMARK  107  A    between atoms: _263  and  _265
REMARK  108  A    between atoms: _265  and  _266
REMARK  109  A    between atoms: _265  and  _268
REMARK  110  A    between atoms: _268  and  _269
REMARK  111  A    between atoms: _269  and  _270
REMARK  112  A    between atoms: _270  and  _271
REMARK  113  A    between atoms: _280  and  _282
REMARK  114  A    between atoms: _282  and  _283
REMARK  115  A    between atoms: _282  and  _285
REMARK  116  A    between atoms: _285  and  _286
REMARK  117  A    between atoms: _289  and  _291
REMARK  118  A    between atoms: _291  and  _292
REMARK  119  A    between atoms: _291  and  _294
REMARK  120  A    between atoms: _294  and  _295
REMARK  121  A    between atoms: _298  and  _300
REMARK  122  A    between atoms: _300  and  _301
REMARK  123  A    between atoms: _300  and  _303
REMARK  124  A    between atoms: _303  and  _304
REMARK  125  A    between atoms: _307  and  _309
REMARK  126  A    between atoms: _309  and  _310
REMARK  127  A    between atoms: _309  and  _312
REMARK  128  A    between atoms: _312  and  _313
REMARK  129  A    between atoms: _316  and  _318
REMARK  130  A    between atoms: _318  and  _319
REMARK  131  A    between atoms: _321  and  _323
REMARK  132  A    between atoms: _323  and  _324
REMARK  133  A    between atoms: _327  and  _329
REMARK  134  A    between atoms: _329  and  _330
REMARK  135  A    between atoms: _329  and  _332
REMARK  136  A    between atoms: _332  and  _333
REMARK  137  A    between atoms: _336  and  _338
REMARK  138  A    between atoms: _338  and  _339
REMARK  139  A    between atoms: _338  and  _341
REMARK  140  A    between atoms: _341  and  _342
REMARK  141  A    between atoms: _345  and  _347
REMARK  142  A    between atoms: _347  and  _348
REMARK  143  A    between atoms: _347  and  _350
REMARK  144  A    between atoms: _350  and  _351
REMARK  145  A    between atoms: _354  and  _356
REMARK  146  A    between atoms: _356  and  _357
REMARK  147  A    between atoms: _356  and  _359
REMARK  148  A    between atoms: _362  and  _364
REMARK  149  A    between atoms: _364  and  _365
REMARK  150  A    between atoms: _364  and  _367
REMARK  151  A    between atoms: _367  and  _368
REMARK  152  A    between atoms: _368  and  _369
REMARK  153  A    between atoms: _369  and  _370
REMARK  154  A    between atoms: _370  and  _371
REMARK  155  A    between atoms: _375  and  _377
REMARK  156  A    between atoms: _377  and  _378
REMARK  157  A    between atoms: _377  and  _380
REMARK  158  A    between atoms: _380  and  _381
REMARK  159  A    between atoms: _381  and  _382
REMARK  160  A    between atoms: _384  and  _386
REMARK  161  A    between atoms: _386  and  _387
REMARK  162  A    between atoms: _386  and  _389
REMARK  163  A    between atoms: _389  and  _390
REMARK  164  A    between atoms: _393  and  _395
REMARK  165  A    between atoms: _395  and  _396
REMARK  166  A    between atoms: _398  and  _400
REMARK  167  A    between atoms: _400  and  _401
REMARK  168  A    between atoms: _403  and  _405
REMARK  169  A    between atoms: _405  and  _406
REMARK  170  A    between atoms: _405  and  _408
REMARK  171  A    between atoms: _408  and  _409
REMARK  172  A    between atoms: _412  and  _414
REMARK  173  A    between atoms: _414  and  _415
REMARK  174  A    between atoms: _417  and  _419
REMARK  175  A    between atoms: _419  and  _420
REMARK  176  A    between atoms: _422  and  _424
REMARK  177  A    between atoms: _424  and  _425
REMARK  178  A    between atoms: _424  and  _427
REMARK  179  A    between atoms: _427  and  _428
REMARK  180  A    between atoms: _434  and  _436
REMARK  181  A    between atoms: _436  and  _437
REMARK  182  A    between atoms: _436  and  _439
REMARK  183  A    between atoms: _439  and  _440
REMARK  184  A    between atoms: _443  and  _445
REMARK  185  A    between atoms: _445  and  _446
REMARK  186  A    between atoms: _445  and  _448
REMARK  187  A    between atoms: _448  and  _449
REMARK  188  A    between atoms: _452  and  _454
REMARK  189  A    between atoms: _454  and  _455
REMARK  190  A    between atoms: _454  and  _457
REMARK  191  A    between atoms: _457  and  _458
REMARK  192  A    between atoms: _462  and  _463
REMARK  193  A    between atoms: _468  and  _470
REMARK  194  A    between atoms: _470  and  _471
REMARK  195  A    between atoms: _470  and  _473
REMARK  196  A    between atoms: _476  and  _478
REMARK  197  A    between atoms: _478  and  _479
REMARK  198  A    between atoms: _478  and  _481
REMARK  199  A    between atoms: _481  and  _482
REMARK  200  A    between atoms: _487  and  _489
REMARK  201  A    between atoms: _489  and  _490
REMARK  202  A    between atoms: _489  and  _492
REMARK  203  A    between atoms: _492  and  _493
REMARK  204  A    between atoms: _496  and  _498
REMARK  205  A    between atoms: _498  and  _499
REMARK  206  A    between atoms: _498  and  _501
REMARK  207  A    between atoms: _501  and  _502
REMARK  208  A    between atoms: _505  and  _507
REMARK  209  A    between atoms: _507  and  _508
REMARK  210  A    between atoms: _510  and  _512
REMARK  211  A    between atoms: _512  and  _513
REMARK  212  A    between atoms: _512  and  _515
REMARK  213  A    between atoms: _515  and  _516
REMARK  214  A    between atoms: _516  and  _517
REMARK  215  A    between atoms: _517  and  _518
REMARK  216  A    between atoms: _527  and  _529
REMARK  217  A    between atoms: _529  and  _530
REMARK  218  A    between atoms: _529  and  _532
REMARK  219  A    between atoms: _532  and  _533
REMARK                            x       y       z     vdW  Elec       q    Type
REMARK                         _______ _______ _______ _____ _____    ______ ____
ROOT
ATOM      1  O   HOH     1      12.233  20.843  10.791  0.00  0.00    +0.000 OA
ENDROOT
TORSDOF 0
REMARK  Name = ../refined-set-2016/2psu/2psu_pocket.pdb
REMARK  219 active torsions:
REMARK  status: ('A' for Active; 'I' for Inactive)
REMARK    1  A    between atoms: _1  and  _3
REMARK    2  A    between atoms: _3  and  _4
REMARK    3  A    between atoms: _3  and  _6
REMARK    4  A    between atoms: _6  and  _7
REMARK    5  A    between atoms: _7  and  _8
REMARK    6  A    between atoms: _8  and  _9
REMARK    7  A    between atoms: _18  and  _20
REMARK    8  A    between atoms: _20  and  _21
REMARK    9  A    between atoms: _20  and  _23
REMARK   10  A    between atoms: _23  and  _24
REMARK   11  A    between atoms: _27  and  _29
REMARK   12  A    between atoms: _29  and  _30
REMARK   13  A    between atoms: _29  and  _32
REMARK   14  A    between atoms: _32  and  _33
REMARK   15  A    between atoms: _36  and  _38
REMARK   16  A    between atoms: _38  and  _39
REMARK   17  A    between atoms: _38  and  _41
REMARK   18  A    between atoms: _41  and  _42
REMARK   19  A    between atoms: _45  and  _47
REMARK   20  A    between atoms: _47  and  _48
REMARK   21  A    between atoms: _47  and  _50
REMARK   22  A    between atoms: _50  and  _51
REMARK   23  A    between atoms: _54  and  _56
REMARK   24  A    between atoms: _56  and  _57
REMARK   25  A    between atoms: _59  and  _61
REMARK   26  A    between atoms: _61  and  _62
REMARK   27  A    between atoms: _65  and  _67
REMARK   28  A    between atoms: _67  and  _68
REMARK   29  A    between atoms: _67  and  _70
REMARK   30  A    between atoms: _70  and  _71
REMARK   31  A    between atoms: _74  and  _76
REMARK   32  A    between atoms: _76  and  _77
REMARK   33  A    between atoms: _76  and  _79
REMARK   34  A    between atoms: _79  and  _80
REMARK   35  A    between atoms: _83  and  _85
REMARK   36  A    between atoms: _85  and  _86
REMARK   37  A    between atoms: _85  and  _88
REMARK   38  A    between atoms: _88  and  _89
REMARK   39  A    between atoms: _92  and  _94
REMARK   40  A    between atoms: _94  and  _95
REMARK   41  A    between atoms: _94  and  _97
REMARK   42  A    between atoms: _100  and  _102
REMARK   43  A    between atoms: _102  and  _103
REMARK   44  A    between atoms: _102  and  _105
REMARK   45  A    between atoms: _105  and  _106
REMARK   46  A    between atoms: _106  and  _107
REMARK   47  A    between atoms: _109  and  _111
REMARK   48  A    between atoms: _111  and  _112
REMARK   49  A    between atoms: _111  and  _114
REMARK   50  A    between atoms: _114  and  _115
REMARK   51  A    between atoms: _118  and  _120
REMARK   52  A    between atoms: _120  and  _121
REMARK   53  A    between atoms: _123  and  _125
REMARK   54  A    between atoms: _125  and  _126
REMARK   55  A    between atoms: _128  and  _130
REMARK   56  A    between atoms: _130  and  _131
REMARK   57  A    between atoms: _130  and  _133
REMARK   58  A    between atoms: _133  and  _134
REMARK   59  A    between atoms: _137  and  _139
REMARK   60  A    between atoms: _139  and  _140
REMARK   61  A    between atoms: _142  and  _144
REMARK   62  A    between atoms: _144  and  _145
REMARK   63  A    between atoms: _147  and  _149
REMARK   64  A    between atoms: _149  and  _150
REMARK   65  A    between atoms: _149  and  _152
REMARK   66  A    between atoms: _152  and  _153
REMARK   67  A    between atoms: _159  and  _161
REMARK   68  A    between atoms: _161  and  _162
REMARK   69  A    between atoms: _161  and  _164
REMARK   70  A    between atoms: _164  and  _165
REMARK   71  A    between atoms: _168  and  _170
REMARK   72  A    between atoms: _170  and  _171
REMARK   73  A    between atoms: _170  and  _173
REMARK   74  A    between atoms: _173  and  _174
REMARK   75  A    between atoms: _177  and  _179
REMARK   76  A    between atoms: _179  and  _180
REMARK   77  A    between atoms: _179  and  _182
REMARK   78  A    between atoms: _182  and  _183
REMARK   79  A    between atoms: _187  and  _188
REMARK   80  A    between atoms: _193  and  _195
REMARK   81  A    between atoms: _195  and  _196
REMARK   82  A    between atoms: _195  and  _198
REMARK   83  A    between atoms: _201  and  _203
REMARK   84  A    between atoms: _203  and  _204
REMARK   85  A    between atoms: _203  and  _206
REMARK   86  A    between atoms: _206  and  _207
REMARK   87  A    between atoms: _212  and  _214
REMARK   88  A    between atoms: _214  and  _215
REMARK   89  A    between atoms: _214  and  _217
REMARK   90  A    between atoms: _217  and  _218
REMARK   91  A    between atoms: _221  and  _223
REMARK   92  A    between atoms: _223  and  _224
REMARK   93  A    between atoms: _223  and  _226
REMARK   94  A    between atoms: _226  and  _227
REMARK   95  A    between atoms: _230  and  _232
REMARK   96  A    between atoms: _232  and  _233
REMARK   97  A    between atoms: _235  and  _237
REMARK   98  A    between atoms: _237  and  _238
REMARK   99  A    between atoms: _237  and  _240
REMARK  100  A    between atoms: _240  and  _241
REMARK  101  A    between atoms: _241  and  _242
REMARK  102  A    between atoms: _242  and  _243
REMARK  103  A    between atoms: _252  and  _254
REMARK  104  A    between atoms: _254  and  _255
REMARK  105  A    between atoms: _254  and  _257
REMARK  106  A    between atoms: _257  and  _258
REMARK  107  A    between atoms: _263  and  _265
REMARK  108  A    between atoms: _265  and  _266
REMARK  109  A    between atoms: _265  and  _268
REMARK  110  A    between atoms: _268  and  _269
REMARK  111  A    between atoms: _269  and  _270
REMARK  112  A    between atoms: _270  and  _271
REMARK  113  A    between atoms: _280  and  _282
REMARK  114  A    between atoms: _282  and  _283
REMARK  115  A    between atoms: _282  and  _285
REMARK  116  A    between atoms: _285  and  _286
REMARK  117  A    between atoms: _289  and  _291
REMARK  118  A    between atoms: _291  and  _292
REMARK  119  A    between atoms: _291  and  _294
REMARK  120  A    between atoms: _294  and  _295
REMARK  121  A    between atoms: _298  and  _300
REMARK  122  A    between atoms: _300  and  _301
REMARK  123  A    between atoms: _300  and  _303
REMARK  124  A    between atoms: _303  and  _304
REMARK  125  A    between atoms: _307  and  _309
REMARK  126  A    between atoms: _309  and  _310
REMARK  127  A    between atoms: _309  and  _312
REMARK  128  A    between atoms: _312  and  _313
REMARK  129  A    between atoms: _316  and  _318
REMARK  130  A    between atoms: _318  and  _319
REMARK  131  A    between atoms: _321  and  _323
REMARK  132  A    between atoms: _323  and  _324
REMARK  133  A    between atoms: _327  and  _329
REMARK  134  A    between atoms: _329  and  _330
REMARK  135  A    between atoms: _329  and  _332
REMARK  136  A    between atoms: _332  and  _333
REMARK  137  A    between atoms: _336  and  _338
REMARK  138  A    between atoms: _338  and  _339
REMARK  139  A    between atoms: _338  and  _341
REMARK  140  A    between atoms: _341  and  _342
REMARK  141  A    between atoms: _345  and  _347
REMARK  142  A    between atoms: _347  and  _348
REMARK  143  A    between atoms: _347  and  _350
REMARK  144  A    between atoms: _350  and  _351
REMARK  145  A    between atoms: _354  and  _356
REMARK  146  A    between atoms: _356  and  _357
REMARK  147  A    between atoms: _356  and  _359
REMARK  148  A    between atoms: _362  and  _364
REMARK  149  A    between atoms: _364  and  _365
REMARK  150  A    between atoms: _364  and  _367
REMARK  151  A    between atoms: _367  and  _368
REMARK  152  A    between atoms: _368  and  _369
REMARK  153  A    between atoms: _369  and  _370
REMARK  154  A    between atoms: _370  and  _371
REMARK  155  A    between atoms: _375  and  _377
REMARK  156  A    between atoms: _377  and  _378
REMARK  157  A    between atoms: _377  and  _380
REMARK  158  A    between atoms: _380  and  _381
REMARK  159  A    between atoms: _381  and  _382
REMARK  160  A    between atoms: _384  and  _386
REMARK  161  A    between atoms: _386  and  _387
REMARK  162  A    between atoms: _386  and  _389
REMARK  163  A    between atoms: _389  and  _390
REMARK  164  A    between atoms: _393  and  _395
REMARK  165  A    between atoms: _395  and  _396
REMARK  166  A    between atoms: _398  and  _400
REMARK  167  A    between atoms: _400  and  _401
REMARK  168  A    between atoms: _403  and  _405
REMARK  169  A    between atoms: _405  and  _406
REMARK  170  A    between atoms: _405  and  _408
REMARK  171  A    between atoms: _408  and  _409
REMARK  172  A    between atoms: _412  and  _414
REMARK  173  A    between atoms: _414  and  _415
REMARK  174  A    between atoms: _417  and  _419
REMARK  175  A    between atoms: _419  and  _420
REMARK  176  A    between atoms: _422  and  _424
REMARK  177  A    between atoms: _424  and  _425
REMARK  178  A    between atoms: _424  and  _427
REMARK  179  A    between atoms: _427  and  _428
REMARK  180  A    between atoms: _434  and  _436
REMARK  181  A    between atoms: _436  and  _437
REMARK  182  A    between atoms: _436  and  _439
REMARK  183  A    between atoms: _439  and  _440
REMARK  184  A    between atoms: _443  and  _445
REMARK  185  A    between atoms: _445  and  _446
REMARK  186  A    between atoms: _445  and  _448
REMARK  187  A    between atoms: _448  and  _449
REMARK  188  A    between atoms: _452  and  _454
REMARK  189  A    between atoms: _454  and  _455
REMARK  190  A    between atoms: _454  and  _457
REMARK  191  A    between atoms: _457  and  _458
REMARK  192  A    between atoms: _462  and  _463
REMARK  193  A    between atoms: _468  and  _470
REMARK  194  A    between atoms: _470  and  _471
REMARK  195  A    between atoms: _470  and  _473
REMARK  196  A    between atoms: _476  and  _478
REMARK  197  A    between atoms: _478  and  _479
REMARK  198  A    between atoms: _478  and  _481
REMARK  199  A    between atoms: _481  and  _482
REMARK  200  A    between atoms: _487  and  _489
REMARK  201  A    between atoms: _489  and  _490
REMARK  202  A    between atoms: _489  and  _492
REMARK  203  A    between atoms: _492  and  _493
REMARK  204  A    between atoms: _496  and  _498
REMARK  205  A    between atoms: _498  and  _499
REMARK  206  A    between atoms: _498  and  _501
REMARK  207  A    between atoms: _501  and  _502
REMARK  208  A    between atoms: _505  and  _507
REMARK  209  A    between atoms: _507  and  _508
REMARK  210  A    between atoms: _510  and  _512
REMARK  211  A    between atoms: _512  and  _513
REMARK  212  A    between atoms: _512  and  _515
REMARK  213  A    between atoms: _515  and  _516
REMARK  214  A    between atoms: _516  and  _517
REMARK  215  A    between atoms: _517  and  _518
REMARK  216  A    between atoms: _527  and  _529
REMARK  217  A    between atoms: _529  and  _530
REMARK  218  A    between atoms: _529  and  _532
REMARK  219  A    between atoms: _532  and  _533
REMARK                            x       y       z     vdW  Elec       q    Type
REMARK                         _______ _______ _______ _____ _____    ______ ____
ROOT
ATOM      1  O   HOH     1      15.121  20.660  10.793  0.00  0.00    +0.000 OA
ENDROOT
TORSDOF 0
REMARK  Name = ../refined-set-2016/2psu/2psu_pocket.pdb
REMARK  219 active torsions:
REMARK  status: ('A' for Active; 'I' for Inactive)
REMARK    1  A    between atoms: _1  and  _3
REMARK    2  A    between atoms: _3  and  _4
REMARK    3  A    between atoms: _3  and  _6
REMARK    4  A    between atoms: _6  and  _7
REMARK    5  A    between atoms: _7  and  _8
REMARK    6  A    between atoms: _8  and  _9
REMARK    7  A    between atoms: _18  and  _20
REMARK    8  A    between atoms: _20  and  _21
REMARK    9  A    between atoms: _20  and  _23
REMARK   10  A    between atoms: _23  and  _24
REMARK   11  A    between atoms: _27  and  _29
REMARK   12  A    between atoms: _29  and  _30
REMARK   13  A    between atoms: _29  and  _32
REMARK   14  A    between atoms: _32  and  _33
REMARK   15  A    between atoms: _36  and  _38
REMARK   16  A    between atoms: _38  and  _39
REMARK   17  A    between atoms: _38  and  _41
REMARK   18  A    between atoms: _41  and  _42
REMARK   19  A    between atoms: _45  and  _47
REMARK   20  A    between atoms: _47  and  _48
REMARK   21  A    between atoms: _47  and  _50
REMARK   22  A    between atoms: _50  and  _51
REMARK   23  A    between atoms: _54  and  _56
REMARK   24  A    between atoms: _56  and  _57
REMARK   25  A    between atoms: _59  and  _61
REMARK   26  A    between atoms: _61  and  _62
REMARK   27  A    between atoms: _65  and  _67
REMARK   28  A    between atoms: _67  and  _68
REMARK   29  A    between atoms: _67  and  _70
REMARK   30  A    between atoms: _70  and  _71
REMARK   31  A    between atoms: _74  and  _76
REMARK   32  A    between atoms: _76  and  _77
REMARK   33  A    between atoms: _76  and  _79
REMARK   34  A    between atoms: _79  and  _80
REMARK   35  A    between atoms: _83  and  _85
REMARK   36  A    between atoms: _85  and  _86
REMARK   37  A    between atoms: _85  and  _88
REMARK   38  A    between atoms: _88  and  _89
REMARK   39  A    between atoms: _92  and  _94
REMARK   40  A    between atoms: _94  and  _95
REMARK   41  A    between atoms: _94  and  _97
REMARK   42  A    between atoms: _100  and  _102
REMARK   43  A    between atoms: _102  and  _103
REMARK   44  A    between atoms: _102  and  _105
REMARK   45  A    between atoms: _105  and  _106
REMARK   46  A    between atoms: _106  and  _107
REMARK   47  A    between atoms: _109  and  _111
REMARK   48  A    between atoms: _111  and  _112
REMARK   49  A    between atoms: _111  and  _114
REMARK   50  A    between atoms: _114  and  _115
REMARK   51  A    between atoms: _118  and  _120
REMARK   52  A    between atoms: _120  and  _121
REMARK   53  A    between atoms: _123  and  _125
REMARK   54  A    between atoms: _125  and  _126
REMARK   55  A    between atoms: _128  and  _130
REMARK   56  A    between atoms: _130  and  _131
REMARK   57  A    between atoms: _130  and  _133
REMARK   58  A    between atoms: _133  and  _134
REMARK   59  A    between atoms: _137  and  _139
REMARK   60  A    between atoms: _139  and  _140
REMARK   61  A    between atoms: _142  and  _144
REMARK   62  A    between atoms: _144  and  _145
REMARK   63  A    between atoms: _147  and  _149
REMARK   64  A    between atoms: _149  and  _150
REMARK   65  A    between atoms: _149  and  _152
REMARK   66  A    between atoms: _152  and  _153
REMARK   67  A    between atoms: _159  and  _161
REMARK   68  A    between atoms: _161  and  _162
REMARK   69  A    between atoms: _161  and  _164
REMARK   70  A    between atoms: _164  and  _165
REMARK   71  A    between atoms: _168  and  _170
REMARK   72  A    between atoms: _170  and  _171
REMARK   73  A    between atoms: _170  and  _173
REMARK   74  A    between atoms: _173  and  _174
REMARK   75  A    between atoms: _177  and  _179
REMARK   76  A    between atoms: _179  and  _180
REMARK   77  A    between atoms: _179  and  _182
REMARK   78  A    between atoms: _182  and  _183
REMARK   79  A    between atoms: _187  and  _188
REMARK   80  A    between atoms: _193  and  _195
REMARK   81  A    between atoms: _195  and  _196
REMARK   82  A    between atoms: _195  and  _198
REMARK   83  A    between atoms: _201  and  _203
REMARK   84  A    between atoms: _203  and  _204
REMARK   85  A    between atoms: _203  and  _206
REMARK   86  A    between atoms: _206  and  _207
REMARK   87  A    between atoms: _212  and  _214
REMARK   88  A    between atoms: _214  and  _215
REMARK   89  A    between atoms: _214  and  _217
REMARK   90  A    between atoms: _217  and  _218
REMARK   91  A    between atoms: _221  and  _223
REMARK   92  A    between atoms: _223  and  _224
REMARK   93  A    between atoms: _223  and  _226
REMARK   94  A    between atoms: _226  and  _227
REMARK   95  A    between atoms: _230  and  _232
REMARK   96  A    between atoms: _232  and  _233
REMARK   97  A    between atoms: _235  and  _237
REMARK   98  A    between atoms: _237  and  _238
REMARK   99  A    between atoms: _237  and  _240
REMARK  100  A    between atoms: _240  and  _241
REMARK  101  A    between atoms: _241  and  _242
REMARK  102  A    between atoms: _242  and  _243
REMARK  103  A    between atoms: _252  and  _254
REMARK  104  A    between atoms: _254  and  _255
REMARK  105  A    between atoms: _254  and  _257
REMARK  106  A    between atoms: _257  and  _258
REMARK  107  A    between atoms: _263  and  _265
REMARK  108  A    between atoms: _265  and  _266
REMARK  109  A    between atoms: _265  and  _268
REMARK  110  A    between atoms: _268  and  _269
REMARK  111  A    between atoms: _269  and  _270
REMARK  112  A    between atoms: _270  and  _271
REMARK  113  A    between atoms: _280  and  _282
REMARK  114  A    between atoms: _282  and  _283
REMARK  115  A    between atoms: _282  and  _285
REMARK  116  A    between atoms: _285  and  _286
REMARK  117  A    between atoms: _289  and  _291
REMARK  118  A    between atoms: _291  and  _292
REMARK  119  A    between atoms: _291  and  _294
REMARK  120  A    between atoms: _294  and  _295
REMARK  121  A    between atoms: _298  and  _300
REMARK  122  A    between atoms: _300  and  _301
REMARK  123  A    between atoms: _300  and  _303
REMARK  124  A    between atoms: _303  and  _304
REMARK  125  A    between atoms: _307  and  _309
REMARK  126  A    between atoms: _309  and  _310
REMARK  127  A    between atoms: _309  and  _312
REMARK  128  A    between atoms: _312  and  _313
REMARK  129  A    between atoms: _316  and  _318
REMARK  130  A    between atoms: _318  and  _319
REMARK  131  A    between atoms: _321  and  _323
REMARK  132  A    between atoms: _323  and  _324
REMARK  133  A    between atoms: _327  and  _329
REMARK  134  A    between atoms: _329  and  _330
REMARK  135  A    between atoms: _329  and  _332
REMARK  136  A    between atoms: _332  and  _333
REMARK  137  A    between atoms: _336  and  _338
REMARK  138  A    between atoms: _338  and  _339
REMARK  139  A    between atoms: _338  and  _341
REMARK  140  A    between atoms: _341  and  _342
REMARK  141  A    between atoms: _345  and  _347
REMARK  142  A    between atoms: _347  and  _348
REMARK  143  A    between atoms: _347  and  _350
REMARK  144  A    between atoms: _350  and  _351
REMARK  145  A    between atoms: _354  and  _356
REMARK  146  A    between atoms: _356  and  _357
REMARK  147  A    between atoms: _356  and  _359
REMARK  148  A    between atoms: _362  and  _364
REMARK  149  A    between atoms: _364  and  _365
REMARK  150  A    between atoms: _364  and  _367
REMARK  151  A    between atoms: _367  and  _368
REMARK  152  A    between atoms: _368  and  _369
REMARK  153  A    between atoms: _369  and  _370
REMARK  154  A    between atoms: _370  and  _371
REMARK  155  A    between atoms: _375  and  _377
REMARK  156  A    between atoms: _377  and  _378
REMARK  157  A    between atoms: _377  and  _380
REMARK  158  A    between atoms: _380  and  _381
REMARK  159  A    between atoms: _381  and  _382
REMARK  160  A    between atoms: _384  and  _386
REMARK  161  A    between atoms: _386  and  _387
REMARK  162  A    between atoms: _386  and  _389
REMARK  163  A    between atoms: _389  and  _390
REMARK  164  A    between atoms: _393  and  _395
REMARK  165  A    between atoms: _395  and  _396
REMARK  166  A    between atoms: _398  and  _400
REMARK  167  A    between atoms: _400  and  _401
REMARK  168  A    between atoms: _403  and  _405
REMARK  169  A    between atoms: _405  and  _406
REMARK  170  A    between atoms: _405  and  _408
REMARK  171  A    between atoms: _408  and  _409
REMARK  172  A    between atoms: _412  and  _414
REMARK  173  A    between atoms: _414  and  _415
REMARK  174  A    between atoms: _417  and  _419
REMARK  175  A    between atoms: _419  and  _420
REMARK  176  A    between atoms: _422  and  _424
REMARK  177  A    between atoms: _424  and  _425
REMARK  178  A    between atoms: _424  and  _427
REMARK  179  A    between atoms: _427  and  _428
REMARK  180  A    between atoms: _434  and  _436
REMARK  181  A    between atoms: _436  and  _437
REMARK  182  A    between atoms: _436  and  _439
REMARK  183  A    between atoms: _439  and  _440
REMARK  184  A    between atoms: _443  and  _445
REMARK  185  A    between atoms: _445  and  _446
REMARK  186  A    between atoms: _445  and  _448
REMARK  187  A    between atoms: _448  and  _449
REMARK  188  A    between atoms: _452  and  _454
REMARK  189  A    between atoms: _454  and  _455
REMARK  190  A    between atoms: _454  and  _457
REMARK  191  A    between atoms: _457  and  _458
REMARK  192  A    between atoms: _462  and  _463
REMARK  193  A    between atoms: _468  and  _470
REMARK  194  A    between atoms: _470  and  _471
REMARK  195  A    between atoms: _470  and  _473
REMARK  196  A    between atoms: _476  and  _478
REMARK  197  A    between atoms: _478  and  _479
REMARK  198  A    between atoms: _478  and  _481
REMARK  199  A    between atoms: _481  and  _482
REMARK  200  A    between atoms: _487  and  _489
REMARK  201  A    between atoms: _489  and  _490
REMARK  202  A    between atoms: _489  and  _492
REMARK  203  A    between atoms: _492  and  _493
REMARK  204  A    between atoms: _496  and  _498
REMARK  205  A    between atoms: _498  and  _499
REMARK  206  A    between atoms: _498  and  _501
REMARK  207  A    between atoms: _501  and  _502
REMARK  208  A    between atoms: _505  and  _507
REMARK  209  A    between atoms: _507  and  _508
REMARK  210  A    between atoms: _510  and  _512
REMARK  211  A    between atoms: _512  and  _513
REMARK  212  A    between atoms: _512  and  _515
REMARK  213  A    between atoms: _515  and  _516
REMARK  214  A    between atoms: _516  and  _517
REMARK  215  A    between atoms: _517  and  _518
REMARK  216  A    between atoms: _527  and  _529
REMARK  217  A    between atoms: _529  and  _530
REMARK  218  A    between atoms: _529  and  _532
REMARK  219  A    between atoms: _532  and  _533
REMARK                            x       y       z     vdW  Elec       q    Type
REMARK                         _______ _______ _______ _____ _____    ______ ____
ROOT
ATOM      1  O   HOH     1      15.757  41.024  17.828  0.00  0.00    +0.000 OA
ENDROOT
TORSDOF 0
REMARK  Name = ../refined-set-2016/2psu/2psu_pocket.pdb
REMARK  219 active torsions:
REMARK  status: ('A' for Active; 'I' for Inactive)
REMARK    1  A    between atoms: _1  and  _3
REMARK    2  A    between atoms: _3  and  _4
REMARK    3  A    between atoms: _3  and  _6
REMARK    4  A    between atoms: _6  and  _7
REMARK    5  A    between atoms: _7  and  _8
REMARK    6  A    between atoms: _8  and  _9
REMARK    7  A    between atoms: _18  and  _20
REMARK    8  A    between atoms: _20  and  _21
REMARK    9  A    between atoms: _20  and  _23
REMARK   10  A    between atoms: _23  and  _24
REMARK   11  A    between atoms: _27  and  _29
REMARK   12  A    between atoms: _29  and  _30
REMARK   13  A    between atoms: _29  and  _32
REMARK   14  A    between atoms: _32  and  _33
REMARK   15  A    between atoms: _36  and  _38
REMARK   16  A    between atoms: _38  and  _39
REMARK   17  A    between atoms: _38  and  _41
REMARK   18  A    between atoms: _41  and  _42
REMARK   19  A    between atoms: _45  and  _47
REMARK   20  A    between atoms: _47  and  _48
REMARK   21  A    between atoms: _47  and  _50
REMARK   22  A    between atoms: _50  and  _51
REMARK   23  A    between atoms: _54  and  _56
REMARK   24  A    between atoms: _56  and  _57
REMARK   25  A    between atoms: _59  and  _61
REMARK   26  A    between atoms: _61  and  _62
REMARK   27  A    between atoms: _65  and  _67
REMARK   28  A    between atoms: _67  and  _68
REMARK   29  A    between atoms: _67  and  _70
REMARK   30  A    between atoms: _70  and  _71
REMARK   31  A    between atoms: _74  and  _76
REMARK   32  A    between atoms: _76  and  _77
REMARK   33  A    between atoms: _76  and  _79
REMARK   34  A    between atoms: _79  and  _80
REMARK   35  A    between atoms: _83  and  _85
REMARK   36  A    between atoms: _85  and  _86
REMARK   37  A    between atoms: _85  and  _88
REMARK   38  A    between atoms: _88  and  _89
REMARK   39  A    between atoms: _92  and  _94
REMARK   40  A    between atoms: _94  and  _95
REMARK   41  A    between atoms: _94  and  _97
REMARK   42  A    between atoms: _100  and  _102
REMARK   43  A    between atoms: _102  and  _103
REMARK   44  A    between atoms: _102  and  _105
REMARK   45  A    between atoms: _105  and  _106
REMARK   46  A    between atoms: _106  and  _107
REMARK   47  A    between atoms: _109  and  _111
REMARK   48  A    between atoms: _111  and  _112
REMARK   49  A    between atoms: _111  and  _114
REMARK   50  A    between atoms: _114  and  _115
REMARK   51  A    between atoms: _118  and  _120
REMARK   52  A    between atoms: _120  and  _121
REMARK   53  A    between atoms: _123  and  _125
REMARK   54  A    between atoms: _125  and  _126
REMARK   55  A    between atoms: _128  and  _130
REMARK   56  A    between atoms: _130  and  _131
REMARK   57  A    between atoms: _130  and  _133
REMARK   58  A    between atoms: _133  and  _134
REMARK   59  A    between atoms: _137  and  _139
REMARK   60  A    between atoms: _139  and  _140
REMARK   61  A    between atoms: _142  and  _144
REMARK   62  A    between atoms: _144  and  _145
REMARK   63  A    between atoms: _147  and  _149
REMARK   64  A    between atoms: _149  and  _150
REMARK   65  A    between atoms: _149  and  _152
REMARK   66  A    between atoms: _152  and  _153
REMARK   67  A    between atoms: _159  and  _161
REMARK   68  A    between atoms: _161  and  _162
REMARK   69  A    between atoms: _161  and  _164
REMARK   70  A    between atoms: _164  and  _165
REMARK   71  A    between atoms: _168  and  _170
REMARK   72  A    between atoms: _170  and  _171
REMARK   73  A    between atoms: _170  and  _173
REMARK   74  A    between atoms: _173  and  _174
REMARK   75  A    between atoms: _177  and  _179
REMARK   76  A    between atoms: _179  and  _180
REMARK   77  A    between atoms: _179  and  _182
REMARK   78  A    between atoms: _182  and  _183
REMARK   79  A    between atoms: _187  and  _188
REMARK   80  A    between atoms: _193  and  _195
REMARK   81  A    between atoms: _195  and  _196
REMARK   82  A    between atoms: _195  and  _198
REMARK   83  A    between atoms: _201  and  _203
REMARK   84  A    between atoms: _203  and  _204
REMARK   85  A    between atoms: _203  and  _206
REMARK   86  A    between atoms: _206  and  _207
REMARK   87  A    between atoms: _212  and  _214
REMARK   88  A    between atoms: _214  and  _215
REMARK   89  A    between atoms: _214  and  _217
REMARK   90  A    between atoms: _217  and  _218
REMARK   91  A    between atoms: _221  and  _223
REMARK   92  A    between atoms: _223  and  _224
REMARK   93  A    between atoms: _223  and  _226
REMARK   94  A    between atoms: _226  and  _227
REMARK   95  A    between atoms: _230  and  _232
REMARK   96  A    between atoms: _232  and  _233
REMARK   97  A    between atoms: _235  and  _237
REMARK   98  A    between atoms: _237  and  _238
REMARK   99  A    between atoms: _237  and  _240
REMARK  100  A    between atoms: _240  and  _241
REMARK  101  A    between atoms: _241  and  _242
REMARK  102  A    between atoms: _242  and  _243
REMARK  103  A    between atoms: _252  and  _254
REMARK  104  A    between atoms: _254  and  _255
REMARK  105  A    between atoms: _254  and  _257
REMARK  106  A    between atoms: _257  and  _258
REMARK  107  A    between atoms: _263  and  _265
REMARK  108  A    between atoms: _265  and  _266
REMARK  109  A    between atoms: _265  and  _268
REMARK  110  A    between atoms: _268  and  _269
REMARK  111  A    between atoms: _269  and  _270
REMARK  112  A    between atoms: _270  and  _271
REMARK  113  A    between atoms: _280  and  _282
REMARK  114  A    between atoms: _282  and  _283
REMARK  115  A    between atoms: _282  and  _285
REMARK  116  A    between atoms: _285  and  _286
REMARK  117  A    between atoms: _289  and  _291
REMARK  118  A    between atoms: _291  and  _292
REMARK  119  A    between atoms: _291  and  _294
REMARK  120  A    between atoms: _294  and  _295
REMARK  121  A    between atoms: _298  and  _300
REMARK  122  A    between atoms: _300  and  _301
REMARK  123  A    between atoms: _300  and  _303
REMARK  124  A    between atoms: _303  and  _304
REMARK  125  A    between atoms: _307  and  _309
REMARK  126  A    between atoms: _309  and  _310
REMARK  127  A    between atoms: _309  and  _312
REMARK  128  A    between atoms: _312  and  _313
REMARK  129  A    between atoms: _316  and  _318
REMARK  130  A    between atoms: _318  and  _319
REMARK  131  A    between atoms: _321  and  _323
REMARK  132  A    between atoms: _323  and  _324
REMARK  133  A    between atoms: _327  and  _329
REMARK  134  A    between atoms: _329  and  _330
REMARK  135  A    between atoms: _329  and  _332
REMARK  136  A    between atoms: _332  and  _333
REMARK  137  A    between atoms: _336  and  _338
REMARK  138  A    between atoms: _338  and  _339
REMARK  139  A    between atoms: _338  and  _341
REMARK  140  A    between atoms: _341  and  _342
REMARK  141  A    between atoms: _345  and  _347
REMARK  142  A    between atoms: _347  and  _348
REMARK  143  A    between atoms: _347  and  _350
REMARK  144  A    between atoms: _350  and  _351
REMARK  145  A    between atoms: _354  and  _356
REMARK  146  A    between atoms: _356  and  _357
REMARK  147  A    between atoms: _356  and  _359
REMARK  148  A    between atoms: _362  and  _364
REMARK  149  A    between atoms: _364  and  _365
REMARK  150  A    between atoms: _364  and  _367
REMARK  151  A    between atoms: _367  and  _368
REMARK  152  A    between atoms: _368  and  _369
REMARK  153  A    between atoms: _369  and  _370
REMARK  154  A    between atoms: _370  and  _371
REMARK  155  A    between atoms: _375  and  _377
REMARK  156  A    between atoms: _377  and  _378
REMARK  157  A    between atoms: _377  and  _380
REMARK  158  A    between atoms: _380  and  _381
REMARK  159  A    between atoms: _381  and  _382
REMARK  160  A    between atoms: _384  and  _386
REMARK  161  A    between atoms: _386  and  _387
REMARK  162  A    between atoms: _386  and  _389
REMARK  163  A    between atoms: _389  and  _390
REMARK  164  A    between atoms: _393  and  _395
REMARK  165  A    between atoms: _395  and  _396
REMARK  166  A    between atoms: _398  and  _400
REMARK  167  A    between atoms: _400  and  _401
REMARK  168  A    between atoms: _403  and  _405
REMARK  169  A    between atoms: _405  and  _406
REMARK  170  A    between atoms: _405  and  _408
REMARK  171  A    between atoms: _408  and  _409
REMARK  172  A    between atoms: _412  and  _414
REMARK  173  A    between atoms: _414  and  _415
REMARK  174  A    between atoms: _417  and  _419
REMARK  175  A    between atoms: _419  and  _420
REMARK  176  A    between atoms: _422  and  _424
REMARK  177  A    between atoms: _424  and  _425
REMARK  178  A    between atoms: _424  and  _427
REMARK  179  A    between atoms: _427  and  _428
REMARK  180  A    between atoms: _434  and  _436
REMARK  181  A    between atoms: _436  and  _437
REMARK  182  A    between atoms: _436  and  _439
REMARK  183  A    between atoms: _439  and  _440
REMARK  184  A    between atoms: _443  and  _445
REMARK  185  A    between atoms: _445  and  _446
REMARK  186  A    between atoms: _445  and  _448
REMARK  187  A    between atoms: _448  and  _449
REMARK  188  A    between atoms: _452  and  _454
REMARK  189  A    between atoms: _454  and  _455
REMARK  190  A    between atoms: _454  and  _457
REMARK  191  A    between atoms: _457  and  _458
REMARK  192  A    between atoms: _462  and  _463
REMARK  193  A    between atoms: _468  and  _470
REMARK  194  A    between atoms: _470  and  _471
REMARK  195  A    between atoms: _470  and  _473
REMARK  196  A    between atoms: _476  and  _478
REMARK  197  A    between atoms: _478  and  _479
REMARK  198  A    between atoms: _478  and  _481
REMARK  199  A    between atoms: _481  and  _482
REMARK  200  A    between atoms: _487  and  _489
REMARK  201  A    between atoms: _489  and  _490
REMARK  202  A    between atoms: _489  and  _492
REMARK  203  A    between atoms: _492  and  _493
REMARK  204  A    between atoms: _496  and  _498
REMARK  205  A    between atoms: _498  and  _499
REMARK  206  A    between atoms: _498  and  _501
REMARK  207  A    between atoms: _501  and  _502
REMARK  208  A    between atoms: _505  and  _507
REMARK  209  A    between atoms: _507  and  _508
REMARK  210  A    between atoms: _510  and  _512
REMARK  211  A    between atoms: _512  and  _513
REMARK  212  A    between atoms: _512  and  _515
REMARK  213  A    between atoms: _515  and  _516
REMARK  214  A    between atoms: _516  and  _517
REMARK  215  A    between atoms: _517  and  _518
REMARK  216  A    between atoms: _527  and  _529
REMARK  217  A    between atoms: _529  and  _530
REMARK  218  A    between atoms: _529  and  _532
REMARK  219  A    between atoms: _532  and  _533
REMARK                            x       y       z     vdW  Elec       q    Type
REMARK                         _______ _______ _______ _____ _____    ______ ____
ROOT
ATOM      1  O   HOH     1       9.748  39.118  21.645  0.00  0.00    +0.000 OA
ENDROOT
TORSDOF 0
REMARK  Name = ../refined-set-2016/2psu/2psu_pocket.pdb
REMARK  219 active torsions:
REMARK  status: ('A' for Active; 'I' for Inactive)
REMARK    1  A    between atoms: _1  and  _3
REMARK    2  A    between atoms: _3  and  _4
REMARK    3  A    between atoms: _3  and  _6
REMARK    4  A    between atoms: _6  and  _7
REMARK    5  A    between atoms: _7  and  _8
REMARK    6  A    between atoms: _8  and  _9
REMARK    7  A    between atoms: _18  and  _20
REMARK    8  A    between atoms: _20  and  _21
REMARK    9  A    between atoms: _20  and  _23
REMARK   10  A    between atoms: _23  and  _24
REMARK   11  A    between atoms: _27  and  _29
REMARK   12  A    between atoms: _29  and  _30
REMARK   13  A    between atoms: _29  and  _32
REMARK   14  A    between atoms: _32  and  _33
REMARK   15  A    between atoms: _36  and  _38
REMARK   16  A    between atoms: _38  and  _39
REMARK   17  A    between atoms: _38  and  _41
REMARK   18  A    between atoms: _41  and  _42
REMARK   19  A    between atoms: _45  and  _47
REMARK   20  A    between atoms: _47  and  _48
REMARK   21  A    between atoms: _47  and  _50
REMARK   22  A    between atoms: _50  and  _51
REMARK   23  A    between atoms: _54  and  _56
REMARK   24  A    between atoms: _56  and  _57
REMARK   25  A    between atoms: _59  and  _61
REMARK   26  A    between atoms: _61  and  _62
REMARK   27  A    between atoms: _65  and  _67
REMARK   28  A    between atoms: _67  and  _68
REMARK   29  A    between atoms: _67  and  _70
REMARK   30  A    between atoms: _70  and  _71
REMARK   31  A    between atoms: _74  and  _76
REMARK   32  A    between atoms: _76  and  _77
REMARK   33  A    between atoms: _76  and  _79
REMARK   34  A    between atoms: _79  and  _80
REMARK   35  A    between atoms: _83  and  _85
REMARK   36  A    between atoms: _85  and  _86
REMARK   37  A    between atoms: _85  and  _88
REMARK   38  A    between atoms: _88  and  _89
REMARK   39  A    between atoms: _92  and  _94
REMARK   40  A    between atoms: _94  and  _95
REMARK   41  A    between atoms: _94  and  _97
REMARK   42  A    between atoms: _100  and  _102
REMARK   43  A    between atoms: _102  and  _103
REMARK   44  A    between atoms: _102  and  _105
REMARK   45  A    between atoms: _105  and  _106
REMARK   46  A    between atoms: _106  and  _107
REMARK   47  A    between atoms: _109  and  _111
REMARK   48  A    between atoms: _111  and  _112
REMARK   49  A    between atoms: _111  and  _114
REMARK   50  A    between atoms: _114  and  _115
REMARK   51  A    between atoms: _118  and  _120
REMARK   52  A    between atoms: _120  and  _121
REMARK   53  A    between atoms: _123  and  _125
REMARK   54  A    between atoms: _125  and  _126
REMARK   55  A    between atoms: _128  and  _130
REMARK   56  A    between atoms: _130  and  _131
REMARK   57  A    between atoms: _130  and  _133
REMARK   58  A    between atoms: _133  and  _134
REMARK   59  A    between atoms: _137  and  _139
REMARK   60  A    between atoms: _139  and  _140
REMARK   61  A    between atoms: _142  and  _144
REMARK   62  A    between atoms: _144  and  _145
REMARK   63  A    between atoms: _147  and  _149
REMARK   64  A    between atoms: _149  and  _150
REMARK   65  A    between atoms: _149  and  _152
REMARK   66  A    between atoms: _152  and  _153
REMARK   67  A    between atoms: _159  and  _161
REMARK   68  A    between atoms: _161  and  _162
REMARK   69  A    between atoms: _161  and  _164
REMARK   70  A    between atoms: _164  and  _165
REMARK   71  A    between atoms: _168  and  _170
REMARK   72  A    between atoms: _170  and  _171
REMARK   73  A    between atoms: _170  and  _173
REMARK   74  A    between atoms: _173  and  _174
REMARK   75  A    between atoms: _177  and  _179
REMARK   76  A    between atoms: _179  and  _180
REMARK   77  A    between atoms: _179  and  _182
REMARK   78  A    between atoms: _182  and  _183
REMARK   79  A    between atoms: _187  and  _188
REMARK   80  A    between atoms: _193  and  _195
REMARK   81  A    between atoms: _195  and  _196
REMARK   82  A    between atoms: _195  and  _198
REMARK   83  A    between atoms: _201  and  _203
REMARK   84  A    between atoms: _203  and  _204
REMARK   85  A    between atoms: _203  and  _206
REMARK   86  A    between atoms: _206  and  _207
REMARK   87  A    between atoms: _212  and  _214
REMARK   88  A    between atoms: _214  and  _215
REMARK   89  A    between atoms: _214  and  _217
REMARK   90  A    between atoms: _217  and  _218
REMARK   91  A    between atoms: _221  and  _223
REMARK   92  A    between atoms: _223  and  _224
REMARK   93  A    between atoms: _223  and  _226
REMARK   94  A    between atoms: _226  and  _227
REMARK   95  A    between atoms: _230  and  _232
REMARK   96  A    between atoms: _232  and  _233
REMARK   97  A    between atoms: _235  and  _237
REMARK   98  A    between atoms: _237  and  _238
REMARK   99  A    between atoms: _237  and  _240
REMARK  100  A    between atoms: _240  and  _241
REMARK  101  A    between atoms: _241  and  _242
REMARK  102  A    between atoms: _242  and  _243
REMARK  103  A    between atoms: _252  and  _254
REMARK  104  A    between atoms: _254  and  _255
REMARK  105  A    between atoms: _254  and  _257
REMARK  106  A    between atoms: _257  and  _258
REMARK  107  A    between atoms: _263  and  _265
REMARK  108  A    between atoms: _265  and  _266
REMARK  109  A    between atoms: _265  and  _268
REMARK  110  A    between atoms: _268  and  _269
REMARK  111  A    between atoms: _269  and  _270
REMARK  112  A    between atoms: _270  and  _271
REMARK  113  A    between atoms: _280  and  _282
REMARK  114  A    between atoms: _282  and  _283
REMARK  115  A    between atoms: _282  and  _285
REMARK  116  A    between atoms: _285  and  _286
REMARK  117  A    between atoms: _289  and  _291
REMARK  118  A    between atoms: _291  and  _292
REMARK  119  A    between atoms: _291  and  _294
REMARK  120  A    between atoms: _294  and  _295
REMARK  121  A    between atoms: _298  and  _300
REMARK  122  A    between atoms: _300  and  _301
REMARK  123  A    between atoms: _300  and  _303
REMARK  124  A    between atoms: _303  and  _304
REMARK  125  A    between atoms: _307  and  _309
REMARK  126  A    between atoms: _309  and  _310
REMARK  127  A    between atoms: _309  and  _312
REMARK  128  A    between atoms: _312  and  _313
REMARK  129  A    between atoms: _316  and  _318
REMARK  130  A    between atoms: _318  and  _319
REMARK  131  A    between atoms: _321  and  _323
REMARK  132  A    between atoms: _323  and  _324
REMARK  133  A    between atoms: _327  and  _329
REMARK  134  A    between atoms: _329  and  _330
REMARK  135  A    between atoms: _329  and  _332
REMARK  136  A    between atoms: _332  and  _333
REMARK  137  A    between atoms: _336  and  _338
REMARK  138  A    between atoms: _338  and  _339
REMARK  139  A    between atoms: _338  and  _341
REMARK  140  A    between atoms: _341  and  _342
REMARK  141  A    between atoms: _345  and  _347
REMARK  142  A    between atoms: _347  and  _348
REMARK  143  A    between atoms: _347  and  _350
REMARK  144  A    between atoms: _350  and  _351
REMARK  145  A    between atoms: _354  and  _356
REMARK  146  A    between atoms: _356  and  _357
REMARK  147  A    between atoms: _356  and  _359
REMARK  148  A    between atoms: _362  and  _364
REMARK  149  A    between atoms: _364  and  _365
REMARK  150  A    between atoms: _364  and  _367
REMARK  151  A    between atoms: _367  and  _368
REMARK  152  A    between atoms: _368  and  _369
REMARK  153  A    between atoms: _369  and  _370
REMARK  154  A    between atoms: _370  and  _371
REMARK  155  A    between atoms: _375  and  _377
REMARK  156  A    between atoms: _377  and  _378
REMARK  157  A    between atoms: _377  and  _380
REMARK  158  A    between atoms: _380  and  _381
REMARK  159  A    between atoms: _381  and  _382
REMARK  160  A    between atoms: _384  and  _386
REMARK  161  A    between atoms: _386  and  _387
REMARK  162  A    between atoms: _386  and  _389
REMARK  163  A    between atoms: _389  and  _390
REMARK  164  A    between atoms: _393  and  _395
REMARK  165  A    between atoms: _395  and  _396
REMARK  166  A    between atoms: _398  and  _400
REMARK  167  A    between atoms: _400  and  _401
REMARK  168  A    between atoms: _403  and  _405
REMARK  169  A    between atoms: _405  and  _406
REMARK  170  A    between atoms: _405  and  _408
REMARK  171  A    between atoms: _408  and  _409
REMARK  172  A    between atoms: _412  and  _414
REMARK  173  A    between atoms: _414  and  _415
REMARK  174  A    between atoms: _417  and  _419
REMARK  175  A    between atoms: _419  and  _420
REMARK  176  A    between atoms: _422  and  _424
REMARK  177  A    between atoms: _424  and  _425
REMARK  178  A    between atoms: _424  and  _427
REMARK  179  A    between atoms: _427  and  _428
REMARK  180  A    between atoms: _434  and  _436
REMARK  181  A    between atoms: _436  and  _437
REMARK  182  A    between atoms: _436  and  _439
REMARK  183  A    between atoms: _439  and  _440
REMARK  184  A    between atoms: _443  and  _445
REMARK  185  A    between atoms: _445  and  _446
REMARK  186  A    between atoms: _445  and  _448
REMARK  187  A    between atoms: _448  and  _449
REMARK  188  A    between atoms: _452  and  _454
REMARK  189  A    between atoms: _454  and  _455
REMARK  190  A    between atoms: _454  and  _457
REMARK  191  A    between atoms: _457  and  _458
REMARK  192  A    between atoms: _462  and  _463
REMARK  193  A    between atoms: _468  and  _470
REMARK  194  A    between atoms: _470  and  _471
REMARK  195  A    between atoms: _470  and  _473
REMARK  196  A    between atoms: _476  and  _478
REMARK  197  A    between atoms: _478  and  _479
REMARK  198  A    between atoms: _478  and  _481
REMARK  199  A    between atoms: _481  and  _482
REMARK  200  A    between atoms: _487  and  _489
REMARK  201  A    between atoms: _489  and  _490
REMARK  202  A    between atoms: _489  and  _492
REMARK  203  A    between atoms: _492  and  _493
REMARK  204  A    between atoms: _496  and  _498
REMARK  205  A    between atoms: _498  and  _499
REMARK  206  A    between atoms: _498  and  _501
REMARK  207  A    between atoms: _501  and  _502
REMARK  208  A    between atoms: _505  and  _507
REMARK  209  A    between atoms: _507  and  _508
REMARK  210  A    between atoms: _510  and  _512
REMARK  211  A    between atoms: _512  and  _513
REMARK  212  A    between atoms: _512  and  _515
REMARK  213  A    between atoms: _515  and  _516
REMARK  214  A    between atoms: _516  and  _517
REMARK  215  A    between atoms: _517  and  _518
REMARK  216  A    between atoms: _527  and  _529
REMARK  217  A    between atoms: _529  and  _530
REMARK  218  A    between atoms: _529  and  _532
REMARK  219  A    between atoms: _532  and  _533
REMARK                            x       y       z     vdW  Elec       q    Type
REMARK                         _______ _______ _______ _____ _____    ______ ____
ROOT
ATOM      1  O   HOH     1      16.604  39.261  21.715  0.00  0.00    +0.000 OA
ENDROOT
TORSDOF 0
