REMARK  Name = ../refined-set-2016/1qbs/1qbs_pocket.pdb
REMARK  205 active torsions:
REMARK  status: ('A' for Active; 'I' for Inactive)
REMARK    1  A    between atoms: _1  and  _3
REMARK    2  A    between atoms: _3  and  _4
REMARK    3  A    between atoms: _3  and  _6
REMARK    4  A    between atoms: _6  and  _7
REMARK    5  A    between atoms: _7  and  _8
REMARK    6  A    between atoms: _8  and  _9
REMARK    7  A    between atoms: _18  and  _20
REMARK    8  A    between atoms: _20  and  _21
REMARK    9  A    between atoms: _20  and  _23
REMARK   10  A    between atoms: _23  and  _24
REMARK   11  A    between atoms: _27  and  _29
REMARK   12  A    between atoms: _29  and  _30
REMARK   13  A    between atoms: _29  and  _32
REMARK   14  A    between atoms: _32  and  _33
REMARK   15  A    between atoms: _36  and  _38
REMARK   16  A    between atoms: _38  and  _39
REMARK   17  A    between atoms: _38  and  _41
REMARK   18  A    between atoms: _41  and  _42
REMARK   19  A    between atoms: _45  and  _47
REMARK   20  A    between atoms: _47  and  _48
REMARK   21  A    between atoms: _47  and  _50
REMARK   22  A    between atoms: _50  and  _51
REMARK   23  A    between atoms: _54  and  _56
REMARK   24  A    between atoms: _56  and  _57
REMARK   25  A    between atoms: _59  and  _61
REMARK   26  A    between atoms: _61  and  _62
REMARK   27  A    between atoms: _65  and  _67
REMARK   28  A    between atoms: _67  and  _68
REMARK   29  A    between atoms: _67  and  _70
REMARK   30  A    between atoms: _70  and  _71
REMARK   31  A    between atoms: _74  and  _76
REMARK   32  A    between atoms: _76  and  _77
REMARK   33  A    between atoms: _76  and  _79
REMARK   34  A    between atoms: _79  and  _80
REMARK   35  A    between atoms: _83  and  _85
REMARK   36  A    between atoms: _85  and  _86
REMARK   37  A    between atoms: _85  and  _88
REMARK   38  A    between atoms: _88  and  _89
REMARK   39  A    between atoms: _92  and  _94
REMARK   40  A    between atoms: _94  and  _95
REMARK   41  A    between atoms: _94  and  _97
REMARK   42  A    between atoms: _100  and  _102
REMARK   43  A    between atoms: _102  and  _103
REMARK   44  A    between atoms: _102  and  _105
REMARK   45  A    between atoms: _106  and  _107
REMARK   46  A    between atoms: _107  and  _108
REMARK   47  A    between atoms: _108  and  _109
REMARK   48  A    between atoms: _113  and  _115
REMARK   49  A    between atoms: _115  and  _116
REMARK   50  A    between atoms: _115  and  _118
REMARK   51  A    between atoms: _118  and  _119
REMARK   52  A    between atoms: _122  and  _124
REMARK   53  A    between atoms: _124  and  _125
REMARK   54  A    between atoms: _127  and  _129
REMARK   55  A    between atoms: _129  and  _130
REMARK   56  A    between atoms: _132  and  _134
REMARK   57  A    between atoms: _134  and  _135
REMARK   58  A    between atoms: _134  and  _137
REMARK   59  A    between atoms: _137  and  _138
REMARK   60  A    between atoms: _141  and  _143
REMARK   61  A    between atoms: _143  and  _144
REMARK   62  A    between atoms: _146  and  _148
REMARK   63  A    between atoms: _148  and  _149
REMARK   64  A    between atoms: _151  and  _153
REMARK   65  A    between atoms: _153  and  _154
REMARK   66  A    between atoms: _153  and  _156
REMARK   67  A    between atoms: _156  and  _157
REMARK   68  A    between atoms: _160  and  _162
REMARK   69  A    between atoms: _162  and  _163
REMARK   70  A    between atoms: _162  and  _165
REMARK   71  A    between atoms: _168  and  _170
REMARK   72  A    between atoms: _170  and  _171
REMARK   73  A    between atoms: _170  and  _173
REMARK   74  A    between atoms: _173  and  _174
REMARK   75  A    between atoms: _178  and  _179
REMARK   76  A    between atoms: _184  and  _186
REMARK   77  A    between atoms: _186  and  _187
REMARK   78  A    between atoms: _186  and  _189
REMARK   79  A    between atoms: _189  and  _190
REMARK   80  A    between atoms: _194  and  _195
REMARK   81  A    between atoms: _200  and  _202
REMARK   82  A    between atoms: _202  and  _203
REMARK   83  A    between atoms: _202  and  _205
REMARK   84  A    between atoms: _208  and  _210
REMARK   85  A    between atoms: _210  and  _211
REMARK   86  A    between atoms: _210  and  _213
REMARK   87  A    between atoms: _213  and  _214
REMARK   88  A    between atoms: _219  and  _221
REMARK   89  A    between atoms: _221  and  _222
REMARK   90  A    between atoms: _221  and  _224
REMARK   91  A    between atoms: _224  and  _225
REMARK   92  A    between atoms: _228  and  _230
REMARK   93  A    between atoms: _230  and  _231
REMARK   94  A    between atoms: _230  and  _233
REMARK   95  A    between atoms: _233  and  _234
REMARK   96  A    between atoms: _237  and  _239
REMARK   97  A    between atoms: _239  and  _240
REMARK   98  A    between atoms: _242  and  _244
REMARK   99  A    between atoms: _244  and  _245
REMARK  100  A    between atoms: _244  and  _247
REMARK  101  A    between atoms: _247  and  _248
REMARK  102  A    between atoms: _248  and  _249
REMARK  103  A    between atoms: _249  and  _250
REMARK  104  A    between atoms: _259  and  _261
REMARK  105  A    between atoms: _261  and  _262
REMARK  106  A    between atoms: _261  and  _264
REMARK  107  A    between atoms: _264  and  _265
REMARK  108  A    between atoms: _270  and  _272
REMARK  109  A    between atoms: _272  and  _273
REMARK  110  A    between atoms: _272  and  _275
REMARK  111  A    between atoms: _275  and  _276
REMARK  112  A    between atoms: _276  and  _277
REMARK  113  A    between atoms: _277  and  _278
REMARK  114  A    between atoms: _287  and  _289
REMARK  115  A    between atoms: _289  and  _290
REMARK  116  A    between atoms: _289  and  _292
REMARK  117  A    between atoms: _292  and  _293
REMARK  118  A    between atoms: _296  and  _298
REMARK  119  A    between atoms: _298  and  _299
REMARK  120  A    between atoms: _298  and  _301
REMARK  121  A    between atoms: _301  and  _302
REMARK  122  A    between atoms: _305  and  _307
REMARK  123  A    between atoms: _307  and  _308
REMARK  124  A    between atoms: _307  and  _310
REMARK  125  A    between atoms: _310  and  _311
REMARK  126  A    between atoms: _314  and  _316
REMARK  127  A    between atoms: _316  and  _317
REMARK  128  A    between atoms: _316  and  _319
REMARK  129  A    between atoms: _319  and  _320
REMARK  130  A    between atoms: _323  and  _325
REMARK  131  A    between atoms: _325  and  _326
REMARK  132  A    between atoms: _328  and  _330
REMARK  133  A    between atoms: _330  and  _331
REMARK  134  A    between atoms: _334  and  _336
REMARK  135  A    between atoms: _336  and  _337
REMARK  136  A    between atoms: _336  and  _339
REMARK  137  A    between atoms: _339  and  _340
REMARK  138  A    between atoms: _343  and  _345
REMARK  139  A    between atoms: _345  and  _346
REMARK  140  A    between atoms: _345  and  _348
REMARK  141  A    between atoms: _348  and  _349
REMARK  142  A    between atoms: _352  and  _354
REMARK  143  A    between atoms: _354  and  _355
REMARK  144  A    between atoms: _354  and  _357
REMARK  145  A    between atoms: _357  and  _358
REMARK  146  A    between atoms: _361  and  _363
REMARK  147  A    between atoms: _363  and  _364
REMARK  148  A    between atoms: _363  and  _366
REMARK  149  A    between atoms: _369  and  _371
REMARK  150  A    between atoms: _371  and  _372
REMARK  151  A    between atoms: _371  and  _374
REMARK  152  A    between atoms: _374  and  _375
REMARK  153  A    between atoms: _378  and  _380
REMARK  154  A    between atoms: _380  and  _381
REMARK  155  A    between atoms: _383  and  _385
REMARK  156  A    between atoms: _385  and  _386
REMARK  157  A    between atoms: _388  and  _390
REMARK  158  A    between atoms: _390  and  _391
REMARK  159  A    between atoms: _390  and  _393
REMARK  160  A    between atoms: _393  and  _394
REMARK  161  A    between atoms: _397  and  _399
REMARK  162  A    between atoms: _399  and  _400
REMARK  163  A    between atoms: _402  and  _404
REMARK  164  A    between atoms: _404  and  _405
REMARK  165  A    between atoms: _407  and  _409
REMARK  166  A    between atoms: _409  and  _410
REMARK  167  A    between atoms: _409  and  _412
REMARK  168  A    between atoms: _412  and  _413
REMARK  169  A    between atoms: _416  and  _418
REMARK  170  A    between atoms: _418  and  _419
REMARK  171  A    between atoms: _418  and  _421
REMARK  172  A    between atoms: _421  and  _422
REMARK  173  A    between atoms: _426  and  _427
REMARK  174  A    between atoms: _432  and  _434
REMARK  175  A    between atoms: _434  and  _435
REMARK  176  A    between atoms: _434  and  _437
REMARK  177  A    between atoms: _437  and  _438
REMARK  178  A    between atoms: _442  and  _443
REMARK  179  A    between atoms: _448  and  _450
REMARK  180  A    between atoms: _450  and  _451
REMARK  181  A    between atoms: _450  and  _453
REMARK  182  A    between atoms: _456  and  _458
REMARK  183  A    between atoms: _458  and  _459
REMARK  184  A    between atoms: _458  and  _461
REMARK  185  A    between atoms: _461  and  _462
REMARK  186  A    between atoms: _467  and  _469
REMARK  187  A    between atoms: _469  and  _470
REMARK  188  A    between atoms: _469  and  _472
REMARK  189  A    between atoms: _472  and  _473
REMARK  190  A    between atoms: _476  and  _478
REMARK  191  A    between atoms: _478  and  _479
REMARK  192  A    between atoms: _478  and  _481
REMARK  193  A    between atoms: _481  and  _482
REMARK  194  A    between atoms: _485  and  _487
REMARK  195  A    between atoms: _487  and  _488
REMARK  196  A    between atoms: _490  and  _492
REMARK  197  A    between atoms: _492  and  _493
REMARK  198  A    between atoms: _492  and  _495
REMARK  199  A    between atoms: _495  and  _496
REMARK  200  A    between atoms: _496  and  _497
REMARK  201  A    between atoms: _497  and  _498
REMARK  202  A    between atoms: _507  and  _509
REMARK  203  A    between atoms: _509  and  _510
REMARK  204  A    between atoms: _509  and  _512
REMARK  205  A    between atoms: _512  and  _513
REMARK                            x       y       z     vdW  Elec       q    Type
REMARK                         _______ _______ _______ _____ _____    ______ ____
ROOT
ATOM      1  NE  ARG A   1      -3.600  24.460  22.308  0.00  0.00    -0.265 N 
ATOM      2  CZ  ARG A   1      -3.830  23.148  22.358  0.00  0.00    +0.342 C 
ATOM      3  NH2 ARG A   1      -4.858  22.647  23.079  0.00  0.00    -0.292 N 
ATOM      4 HH21 ARG A   1      -5.485  23.288  23.606  0.00  0.00    +0.255 HD
ATOM      5 HH22 ARG A   1      -5.022  21.620  23.106  0.00  0.00    +0.255 HD
ATOM      6  NH1 ARG A   1      -3.010  22.350  21.659  0.00  0.00    -0.292 N 
ATOM      7 HH11 ARG A   1      -3.153  21.320  21.670  0.00  0.00    +0.255 HD
ATOM      8 HH12 ARG A   1      -2.231  22.761  21.106  0.00  0.00    +0.255 HD
ATOM      9  HE  ARG A   1      -2.870  24.834  21.669  0.00  0.00    +0.259 HD
ENDROOT
BRANCH   1  10
ATOM     10  CD  ARG A   1      -4.365  25.368  23.142  0.00  0.00    +0.174 C 
BRANCH  10  11
ATOM     11  CG  ARG A   1      -5.174  26.306  22.266  0.00  0.00    +0.045 C 
BRANCH  11  12
ATOM     12  CB  ARG A   1      -5.602  27.412  23.186  0.00  0.00    +0.029 C 
BRANCH  12  13
ATOM     13  CA  ARG A   1      -6.745  28.298  22.767  0.00  0.00    +0.133 C 
BRANCH  13  14
ATOM     14  N   ARG A   1      -6.532  28.913  21.452  0.00  0.00    -0.239 NA
ATOM     15  H   ARG A   1      -5.705  28.662  20.873  0.00  0.00    +0.142 HD
ENDBRANCH  13  14
BRANCH  13  16
ATOM     16  C   ARG A   1      -6.785  29.323  23.864  0.00  0.00    +0.224 C 
ATOM     17  O   ARG A   1      -5.995  30.250  23.804  0.00  0.00    -0.287 OA
ENDBRANCH  13  16
ENDBRANCH  12  13
ENDBRANCH  11  12
ENDBRANCH  10  11
ENDBRANCH   1  10
TORSDOF 6
REMARK  Name = ../refined-set-2016/1qbs/1qbs_pocket.pdb
REMARK  205 active torsions:
REMARK  status: ('A' for Active; 'I' for Inactive)
REMARK    1  A    between atoms: _1  and  _3
REMARK    2  A    between atoms: _3  and  _4
REMARK    3  A    between atoms: _3  and  _6
REMARK    4  A    between atoms: _6  and  _7
REMARK    5  A    between atoms: _7  and  _8
REMARK    6  A    between atoms: _8  and  _9
REMARK    7  A    between atoms: _18  and  _20
REMARK    8  A    between atoms: _20  and  _21
REMARK    9  A    between atoms: _20  and  _23
REMARK   10  A    between atoms: _23  and  _24
REMARK   11  A    between atoms: _27  and  _29
REMARK   12  A    between atoms: _29  and  _30
REMARK   13  A    between atoms: _29  and  _32
REMARK   14  A    between atoms: _32  and  _33
REMARK   15  A    between atoms: _36  and  _38
REMARK   16  A    between atoms: _38  and  _39
REMARK   17  A    between atoms: _38  and  _41
REMARK   18  A    between atoms: _41  and  _42
REMARK   19  A    between atoms: _45  and  _47
REMARK   20  A    between atoms: _47  and  _48
REMARK   21  A    between atoms: _47  and  _50
REMARK   22  A    between atoms: _50  and  _51
REMARK   23  A    between atoms: _54  and  _56
REMARK   24  A    between atoms: _56  and  _57
REMARK   25  A    between atoms: _59  and  _61
REMARK   26  A    between atoms: _61  and  _62
REMARK   27  A    between atoms: _65  and  _67
REMARK   28  A    between atoms: _67  and  _68
REMARK   29  A    between atoms: _67  and  _70
REMARK   30  A    between atoms: _70  and  _71
REMARK   31  A    between atoms: _74  and  _76
REMARK   32  A    between atoms: _76  and  _77
REMARK   33  A    between atoms: _76  and  _79
REMARK   34  A    between atoms: _79  and  _80
REMARK   35  A    between atoms: _83  and  _85
REMARK   36  A    between atoms: _85  and  _86
REMARK   37  A    between atoms: _85  and  _88
REMARK   38  A    between atoms: _88  and  _89
REMARK   39  A    between atoms: _92  and  _94
REMARK   40  A    between atoms: _94  and  _95
REMARK   41  A    between atoms: _94  and  _97
REMARK   42  A    between atoms: _100  and  _102
REMARK   43  A    between atoms: _102  and  _103
REMARK   44  A    between atoms: _102  and  _105
REMARK   45  A    between atoms: _106  and  _107
REMARK   46  A    between atoms: _107  and  _108
REMARK   47  A    between atoms: _108  and  _109
REMARK   48  A    between atoms: _113  and  _115
REMARK   49  A    between atoms: _115  and  _116
REMARK   50  A    between atoms: _115  and  _118
REMARK   51  A    between atoms: _118  and  _119
REMARK   52  A    between atoms: _122  and  _124
REMARK   53  A    between atoms: _124  and  _125
REMARK   54  A    between atoms: _127  and  _129
REMARK   55  A    between atoms: _129  and  _130
REMARK   56  A    between atoms: _132  and  _134
REMARK   57  A    between atoms: _134  and  _135
REMARK   58  A    between atoms: _134  and  _137
REMARK   59  A    between atoms: _137  and  _138
REMARK   60  A    between atoms: _141  and  _143
REMARK   61  A    between atoms: _143  and  _144
REMARK   62  A    between atoms: _146  and  _148
REMARK   63  A    between atoms: _148  and  _149
REMARK   64  A    between atoms: _151  and  _153
REMARK   65  A    between atoms: _153  and  _154
REMARK   66  A    between atoms: _153  and  _156
REMARK   67  A    between atoms: _156  and  _157
REMARK   68  A    between atoms: _160  and  _162
REMARK   69  A    between atoms: _162  and  _163
REMARK   70  A    between atoms: _162  and  _165
REMARK   71  A    between atoms: _168  and  _170
REMARK   72  A    between atoms: _170  and  _171
REMARK   73  A    between atoms: _170  and  _173
REMARK   74  A    between atoms: _173  and  _174
REMARK   75  A    between atoms: _178  and  _179
REMARK   76  A    between atoms: _184  and  _186
REMARK   77  A    between atoms: _186  and  _187
REMARK   78  A    between atoms: _186  and  _189
REMARK   79  A    between atoms: _189  and  _190
REMARK   80  A    between atoms: _194  and  _195
REMARK   81  A    between atoms: _200  and  _202
REMARK   82  A    between atoms: _202  and  _203
REMARK   83  A    between atoms: _202  and  _205
REMARK   84  A    between atoms: _208  and  _210
REMARK   85  A    between atoms: _210  and  _211
REMARK   86  A    between atoms: _210  and  _213
REMARK   87  A    between atoms: _213  and  _214
REMARK   88  A    between atoms: _219  and  _221
REMARK   89  A    between atoms: _221  and  _222
REMARK   90  A    between atoms: _221  and  _224
REMARK   91  A    between atoms: _224  and  _225
REMARK   92  A    between atoms: _228  and  _230
REMARK   93  A    between atoms: _230  and  _231
REMARK   94  A    between atoms: _230  and  _233
REMARK   95  A    between atoms: _233  and  _234
REMARK   96  A    between atoms: _237  and  _239
REMARK   97  A    between atoms: _239  and  _240
REMARK   98  A    between atoms: _242  and  _244
REMARK   99  A    between atoms: _244  and  _245
REMARK  100  A    between atoms: _244  and  _247
REMARK  101  A    between atoms: _247  and  _248
REMARK  102  A    between atoms: _248  and  _249
REMARK  103  A    between atoms: _249  and  _250
REMARK  104  A    between atoms: _259  and  _261
REMARK  105  A    between atoms: _261  and  _262
REMARK  106  A    between atoms: _261  and  _264
REMARK  107  A    between atoms: _264  and  _265
REMARK  108  A    between atoms: _270  and  _272
REMARK  109  A    between atoms: _272  and  _273
REMARK  110  A    between atoms: _272  and  _275
REMARK  111  A    between atoms: _275  and  _276
REMARK  112  A    between atoms: _276  and  _277
REMARK  113  A    between atoms: _277  and  _278
REMARK  114  A    between atoms: _287  and  _289
REMARK  115  A    between atoms: _289  and  _290
REMARK  116  A    between atoms: _289  and  _292
REMARK  117  A    between atoms: _292  and  _293
REMARK  118  A    between atoms: _296  and  _298
REMARK  119  A    between atoms: _298  and  _299
REMARK  120  A    between atoms: _298  and  _301
REMARK  121  A    between atoms: _301  and  _302
REMARK  122  A    between atoms: _305  and  _307
REMARK  123  A    between atoms: _307  and  _308
REMARK  124  A    between atoms: _307  and  _310
REMARK  125  A    between atoms: _310  and  _311
REMARK  126  A    between atoms: _314  and  _316
REMARK  127  A    between atoms: _316  and  _317
REMARK  128  A    between atoms: _316  and  _319
REMARK  129  A    between atoms: _319  and  _320
REMARK  130  A    between atoms: _323  and  _325
REMARK  131  A    between atoms: _325  and  _326
REMARK  132  A    between atoms: _328  and  _330
REMARK  133  A    between atoms: _330  and  _331
REMARK  134  A    between atoms: _334  and  _336
REMARK  135  A    between atoms: _336  and  _337
REMARK  136  A    between atoms: _336  and  _339
REMARK  137  A    between atoms: _339  and  _340
REMARK  138  A    between atoms: _343  and  _345
REMARK  139  A    between atoms: _345  and  _346
REMARK  140  A    between atoms: _345  and  _348
REMARK  141  A    between atoms: _348  and  _349
REMARK  142  A    between atoms: _352  and  _354
REMARK  143  A    between atoms: _354  and  _355
REMARK  144  A    between atoms: _354  and  _357
REMARK  145  A    between atoms: _357  and  _358
REMARK  146  A    between atoms: _361  and  _363
REMARK  147  A    between atoms: _363  and  _364
REMARK  148  A    between atoms: _363  and  _366
REMARK  149  A    between atoms: _369  and  _371
REMARK  150  A    between atoms: _371  and  _372
REMARK  151  A    between atoms: _371  and  _374
REMARK  152  A    between atoms: _374  and  _375
REMARK  153  A    between atoms: _378  and  _380
REMARK  154  A    between atoms: _380  and  _381
REMARK  155  A    between atoms: _383  and  _385
REMARK  156  A    between atoms: _385  and  _386
REMARK  157  A    between atoms: _388  and  _390
REMARK  158  A    between atoms: _390  and  _391
REMARK  159  A    between atoms: _390  and  _393
REMARK  160  A    between atoms: _393  and  _394
REMARK  161  A    between atoms: _397  and  _399
REMARK  162  A    between atoms: _399  and  _400
REMARK  163  A    between atoms: _402  and  _404
REMARK  164  A    between atoms: _404  and  _405
REMARK  165  A    between atoms: _407  and  _409
REMARK  166  A    between atoms: _409  and  _410
REMARK  167  A    between atoms: _409  and  _412
REMARK  168  A    between atoms: _412  and  _413
REMARK  169  A    between atoms: _416  and  _418
REMARK  170  A    between atoms: _418  and  _419
REMARK  171  A    between atoms: _418  and  _421
REMARK  172  A    between atoms: _421  and  _422
REMARK  173  A    between atoms: _426  and  _427
REMARK  174  A    between atoms: _432  and  _434
REMARK  175  A    between atoms: _434  and  _435
REMARK  176  A    between atoms: _434  and  _437
REMARK  177  A    between atoms: _437  and  _438
REMARK  178  A    between atoms: _442  and  _443
REMARK  179  A    between atoms: _448  and  _450
REMARK  180  A    between atoms: _450  and  _451
REMARK  181  A    between atoms: _450  and  _453
REMARK  182  A    between atoms: _456  and  _458
REMARK  183  A    between atoms: _458  and  _459
REMARK  184  A    between atoms: _458  and  _461
REMARK  185  A    between atoms: _461  and  _462
REMARK  186  A    between atoms: _467  and  _469
REMARK  187  A    between atoms: _469  and  _470
REMARK  188  A    between atoms: _469  and  _472
REMARK  189  A    between atoms: _472  and  _473
REMARK  190  A    between atoms: _476  and  _478
REMARK  191  A    between atoms: _478  and  _479
REMARK  192  A    between atoms: _478  and  _481
REMARK  193  A    between atoms: _481  and  _482
REMARK  194  A    between atoms: _485  and  _487
REMARK  195  A    between atoms: _487  and  _488
REMARK  196  A    between atoms: _490  and  _492
REMARK  197  A    between atoms: _492  and  _493
REMARK  198  A    between atoms: _492  and  _495
REMARK  199  A    between atoms: _495  and  _496
REMARK  200  A    between atoms: _496  and  _497
REMARK  201  A    between atoms: _497  and  _498
REMARK  202  A    between atoms: _507  and  _509
REMARK  203  A    between atoms: _509  and  _510
REMARK  204  A    between atoms: _509  and  _512
REMARK  205  A    between atoms: _512  and  _513
REMARK                            x       y       z     vdW  Elec       q    Type
REMARK                         _______ _______ _______ _____ _____    ______ ____
ROOT
ATOM      1  C   GLY A   5     -14.125  19.295  31.027  0.00  0.00    +0.243 C 
ATOM      2  N   ALA A   6     -13.283  19.956  31.825  0.00  0.00    -0.297 N 
ATOM      3  H   ALA A   6     -13.135  20.976  31.685  0.00  0.00    +0.150 HD
ATOM      4  O   GLY A   5     -14.364  18.117  31.193  0.00  0.00    -0.273 OA
ENDROOT
BRANCH   2   5
ATOM      5  CA  ALA A   6     -12.565  19.261  32.896  0.00  0.00    +0.149 C 
ATOM      6  CB  ALA A   6     -11.172  19.893  33.107  0.00  0.00    +0.031 C 
BRANCH   5   7
ATOM      7  C   ALA A   6     -13.344  19.542  34.127  0.00  0.00    +0.241 C 
ATOM      8  N   ASP A   7     -13.601  18.533  34.955  0.00  0.00    -0.297 N 
ATOM      9  H   ASP A   7     -13.300  17.558  34.753  0.00  0.00    +0.150 HD
ATOM     10  O   ALA A   6     -13.735  20.674  34.352  0.00  0.00    -0.273 OA
BRANCH   8  11
ATOM     11  CA  ASP A   7     -14.342  18.892  36.180  0.00  0.00    +0.160 C 
BRANCH  11  12
ATOM     12  C   ASP A   7     -13.486  19.512  37.220  0.00  0.00    +0.241 C 
ATOM     13  O   ASP A   7     -13.948  20.342  37.980  0.00  0.00    -0.273 OA
ATOM     14  N   ASP A   8     -12.219  19.098  37.194  0.00  0.00    -0.297 N 
ATOM     15  H   ASP A   8     -11.960  18.399  36.468  0.00  0.00    +0.150 HD
BRANCH  14  16
ATOM     16  CA  ASP A   8     -11.160  19.547  38.105  0.00  0.00    +0.160 C 
BRANCH  16  17
ATOM     17  C   ASP A   8     -10.008  20.195  37.400  0.00  0.00    +0.241 C 
ATOM     18  N   THR A   9      -9.134  20.771  38.211  0.00  0.00    -0.295 N 
ATOM     19  H   THR A   9      -9.325  20.755  39.233  0.00  0.00    +0.150 HD
ATOM     20  O   ASP A   8      -9.900  20.164  36.182  0.00  0.00    -0.273 OA
BRANCH  18  21
ATOM     21  CA  THR A   9      -7.922  21.425  37.746  0.00  0.00    +0.176 C 
BRANCH  21  22
ATOM     22  C   THR A   9      -6.838  20.423  37.889  0.00  0.00    +0.243 C 
ATOM     23  O   THR A   9      -6.752  19.735  38.904  0.00  0.00    -0.273 OA
ATOM     24  N   VAL A  10      -6.012  20.373  36.872  0.00  0.00    -0.298 N 
ATOM     25  H   VAL A  10      -6.213  20.946  36.028  0.00  0.00    +0.150 HD
BRANCH  24  26
ATOM     26  CA  VAL A  10      -4.814  19.531  36.895  0.00  0.00    +0.137 C 
BRANCH  26  27
ATOM     27  CB  VAL A  10      -5.106  18.089  36.354  0.00  0.00    +0.026 C 
ATOM     28  CG2 VAL A  10      -3.794  17.343  36.036  0.00  0.00    +0.002 C 
ATOM     29  CG1 VAL A  10      -6.105  17.968  35.213  0.00  0.00    +0.002 C 
ENDBRANCH  26  27
BRANCH  26  30
ATOM     30  C   VAL A  10      -3.600  20.224  36.225  0.00  0.00    +0.227 C 
ATOM     31  O   VAL A  10      -3.626  20.772  35.120  0.00  0.00    -0.286 OA
ENDBRANCH  26  30
ENDBRANCH  24  26
ENDBRANCH  21  22
BRANCH  21  32
ATOM     32  CB  THR A   9      -7.691  22.570  38.721  0.00  0.00    +0.137 C 
ATOM     33  CG2 THR A   9      -6.353  23.304  38.528  0.00  0.00    +0.034 C 
BRANCH  32  34
ATOM     34  OG1 THR A   9      -8.804  23.441  38.570  0.00  0.00    -0.382 OA
ATOM     35  HG1 THR A   9      -9.637  22.950  38.784  0.00  0.00    +0.210 HD
ENDBRANCH  32  34
ENDBRANCH  21  32
ENDBRANCH  18  21
ENDBRANCH  16  17
BRANCH  16  36
ATOM     36  CB  ASP A   8     -10.587  18.343  38.761  0.00  0.00    +0.143 C 
BRANCH  36  37
ATOM     37  CG  ASP A   8     -11.523  17.903  39.840  0.00  0.00    +0.367 C 
ATOM     38  OD2 ASP A   8     -11.900  18.719  40.689  0.00  0.00    -0.246 OA
ATOM     39  OD1 ASP A   8     -11.859  16.725  39.845  0.00  0.00    -0.246 OA
ENDBRANCH  36  37
ENDBRANCH  16  36
ENDBRANCH  14  16
ENDBRANCH  11  12
BRANCH  11  40
ATOM     40  CB  ASP A   7     -15.009  17.708  36.872  0.00  0.00    +0.143 C 
BRANCH  40  41
ATOM     41  CG  ASP A   7     -15.948  16.955  35.945  0.00  0.00    +0.367 C 
ATOM     42  OD2 ASP A   7     -15.957  15.738  36.055  0.00  0.00    -0.246 OA
ATOM     43  OD1 ASP A   7     -16.665  17.546  35.126  0.00  0.00    -0.246 OA
ENDBRANCH  40  41
ENDBRANCH  11  40
ENDBRANCH   8  11
ENDBRANCH   5   7
ENDBRANCH   2   5
BRANCH   1  44
ATOM     44  CA  GLY A   5     -14.714  20.047  29.854  0.00  0.00    +0.176 C 
BRANCH  44  47
ATOM     45  C   THR A   4     -15.253  22.256  30.420  0.00  0.00    +0.243 C 
ATOM     46  O   THR A   4     -16.216  21.804  30.998  0.00  0.00    -0.273 OA
ATOM     47  N   GLY A   5     -14.388  21.478  29.789  0.00  0.00    -0.295 N 
ATOM     48  H   GLY A   5     -13.552  21.847  29.292  0.00  0.00    +0.150 HD
BRANCH  45  49
ATOM     49  CA  THR A   4     -14.979  23.715  30.409  0.00  0.00    +0.176 C 
BRANCH  49  52
ATOM     50  C   ASP A   3     -12.596  23.706  30.743  0.00  0.00    +0.241 C 
ATOM     51  O   ASP A   3     -12.726  23.061  31.767  0.00  0.00    -0.273 OA
ATOM     52  N   THR A   4     -13.642  24.031  29.958  0.00  0.00    -0.295 N 
ATOM     53  H   THR A   4     -13.490  24.501  29.043  0.00  0.00    +0.150 HD
BRANCH  50  54
ATOM     54  CA  ASP A   3     -11.231  24.116  30.197  0.00  0.00    +0.160 C 
BRANCH  54  56
ATOM     55  C   LEU A   2     -10.289  26.243  29.931  0.00  0.00    +0.241 C 
ATOM     56  N   ASP A   3     -10.709  25.329  30.790  0.00  0.00    -0.297 N 
ATOM     57  H   ASP A   3     -10.667  25.472  31.819  0.00  0.00    +0.150 HD
ATOM     58  O   LEU A   2     -10.556  26.225  28.732  0.00  0.00    -0.273 OA
BRANCH  55  59
ATOM     59  CA  LEU A   2      -9.412  27.322  30.512  0.00  0.00    +0.149 C 
BRANCH  59  62
ATOM     60  C   LEU A   1      -7.215  26.398  30.335  0.00  0.00    +0.238 C 
ATOM     61  O   LEU A   1      -7.457  25.684  31.302  0.00  0.00    -0.274 OA
ATOM     62  N   LEU A   2      -8.078  27.304  29.900  0.00  0.00    -0.297 N 
ATOM     63  H   LEU A   2      -7.820  27.978  29.152  0.00  0.00    +0.150 HD
BRANCH  60  64
ATOM     64  CA  LEU A   1      -5.897  26.313  29.580  0.00  0.00    +0.145 C 
BRANCH  64  65
ATOM     65  N   LEU A   1      -4.792  26.345  30.539  0.00  0.00    -0.238 NA
ATOM     66  H   LEU A   1      -4.476  25.442  30.947  0.00  0.00    +0.142 HD
ENDBRANCH  64  65
BRANCH  64  67
ATOM     67  CB  LEU A   1      -5.875  24.924  28.960  0.00  0.00    +0.026 C 
BRANCH  67  68
ATOM     68  CG  LEU A   1      -6.083  24.724  27.504  0.00  0.00    +0.002 C 
ATOM     69  CD2 LEU A   1      -6.445  23.276  27.411  0.00  0.00    +0.000 C 
ATOM     70  CD1 LEU A   1      -7.126  25.580  26.870  0.00  0.00    +0.000 C 
ENDBRANCH  67  68
ENDBRANCH  64  67
ENDBRANCH  60  64
ENDBRANCH  59  62
BRANCH  59  71
ATOM     71  CB  LEU A   2     -10.112  28.634  30.264  0.00  0.00    +0.029 C 
BRANCH  71  72
ATOM     72  CG  LEU A   2      -9.286  29.828  30.740  0.00  0.00    +0.002 C 
ATOM     73  CD2 LEU A   2      -9.043  29.776  32.234  0.00  0.00    +0.000 C 
ATOM     74  CD1 LEU A   2      -9.931  31.131  30.266  0.00  0.00    +0.000 C 
ENDBRANCH  71  72
ENDBRANCH  59  71
ENDBRANCH  55  59
ENDBRANCH  54  56
BRANCH  54  75
ATOM     75  CB  ASP A   3     -10.128  23.073  30.408  0.00  0.00    +0.143 C 
BRANCH  75  76
ATOM     76  CG  ASP A   3     -10.263  21.809  29.639  0.00  0.00    +0.367 C 
ATOM     77  OD2 ASP A   3     -11.365  21.380  29.379  0.00  0.00    -0.246 OA
ATOM     78  OD1 ASP A   3      -9.245  21.238  29.309  0.00  0.00    -0.246 OA
ENDBRANCH  75  76
ENDBRANCH  54  75
ENDBRANCH  50  54
ENDBRANCH  49  52
BRANCH  49  79
ATOM     79  CB  THR A   4     -16.014  24.449  29.584  0.00  0.00    +0.137 C 
ATOM     80  CG2 THR A   4     -15.832  25.947  29.678  0.00  0.00    +0.034 C 
BRANCH  79  81
ATOM     81  OG1 THR A   4     -15.897  24.108  28.207  0.00  0.00    -0.382 OA
ATOM     82  HG1 THR A   4     -16.033  23.134  28.097  0.00  0.00    +0.210 HD
ENDBRANCH  79  81
ENDBRANCH  49  79
ENDBRANCH  45  49
ENDBRANCH  44  47
ENDBRANCH   1  44
TORSDOF 35
REMARK  Name = ../refined-set-2016/1qbs/1qbs_pocket.pdb
REMARK  205 active torsions:
REMARK  status: ('A' for Active; 'I' for Inactive)
REMARK    1  A    between atoms: _1  and  _3
REMARK    2  A    between atoms: _3  and  _4
REMARK    3  A    between atoms: _3  and  _6
REMARK    4  A    between atoms: _6  and  _7
REMARK    5  A    between atoms: _7  and  _8
REMARK    6  A    between atoms: _8  and  _9
REMARK    7  A    between atoms: _18  and  _20
REMARK    8  A    between atoms: _20  and  _21
REMARK    9  A    between atoms: _20  and  _23
REMARK   10  A    between atoms: _23  and  _24
REMARK   11  A    between atoms: _27  and  _29
REMARK   12  A    between atoms: _29  and  _30
REMARK   13  A    between atoms: _29  and  _32
REMARK   14  A    between atoms: _32  and  _33
REMARK   15  A    between atoms: _36  and  _38
REMARK   16  A    between atoms: _38  and  _39
REMARK   17  A    between atoms: _38  and  _41
REMARK   18  A    between atoms: _41  and  _42
REMARK   19  A    between atoms: _45  and  _47
REMARK   20  A    between atoms: _47  and  _48
REMARK   21  A    between atoms: _47  and  _50
REMARK   22  A    between atoms: _50  and  _51
REMARK   23  A    between atoms: _54  and  _56
REMARK   24  A    between atoms: _56  and  _57
REMARK   25  A    between atoms: _59  and  _61
REMARK   26  A    between atoms: _61  and  _62
REMARK   27  A    between atoms: _65  and  _67
REMARK   28  A    between atoms: _67  and  _68
REMARK   29  A    between atoms: _67  and  _70
REMARK   30  A    between atoms: _70  and  _71
REMARK   31  A    between atoms: _74  and  _76
REMARK   32  A    between atoms: _76  and  _77
REMARK   33  A    between atoms: _76  and  _79
REMARK   34  A    between atoms: _79  and  _80
REMARK   35  A    between atoms: _83  and  _85
REMARK   36  A    between atoms: _85  and  _86
REMARK   37  A    between atoms: _85  and  _88
REMARK   38  A    between atoms: _88  and  _89
REMARK   39  A    between atoms: _92  and  _94
REMARK   40  A    between atoms: _94  and  _95
REMARK   41  A    between atoms: _94  and  _97
REMARK   42  A    between atoms: _100  and  _102
REMARK   43  A    between atoms: _102  and  _103
REMARK   44  A    between atoms: _102  and  _105
REMARK   45  A    between atoms: _106  and  _107
REMARK   46  A    between atoms: _107  and  _108
REMARK   47  A    between atoms: _108  and  _109
REMARK   48  A    between atoms: _113  and  _115
REMARK   49  A    between atoms: _115  and  _116
REMARK   50  A    between atoms: _115  and  _118
REMARK   51  A    between atoms: _118  and  _119
REMARK   52  A    between atoms: _122  and  _124
REMARK   53  A    between atoms: _124  and  _125
REMARK   54  A    between atoms: _127  and  _129
REMARK   55  A    between atoms: _129  and  _130
REMARK   56  A    between atoms: _132  and  _134
REMARK   57  A    between atoms: _134  and  _135
REMARK   58  A    between atoms: _134  and  _137
REMARK   59  A    between atoms: _137  and  _138
REMARK   60  A    between atoms: _141  and  _143
REMARK   61  A    between atoms: _143  and  _144
REMARK   62  A    between atoms: _146  and  _148
REMARK   63  A    between atoms: _148  and  _149
REMARK   64  A    between atoms: _151  and  _153
REMARK   65  A    between atoms: _153  and  _154
REMARK   66  A    between atoms: _153  and  _156
REMARK   67  A    between atoms: _156  and  _157
REMARK   68  A    between atoms: _160  and  _162
REMARK   69  A    between atoms: _162  and  _163
REMARK   70  A    between atoms: _162  and  _165
REMARK   71  A    between atoms: _168  and  _170
REMARK   72  A    between atoms: _170  and  _171
REMARK   73  A    between atoms: _170  and  _173
REMARK   74  A    between atoms: _173  and  _174
REMARK   75  A    between atoms: _178  and  _179
REMARK   76  A    between atoms: _184  and  _186
REMARK   77  A    between atoms: _186  and  _187
REMARK   78  A    between atoms: _186  and  _189
REMARK   79  A    between atoms: _189  and  _190
REMARK   80  A    between atoms: _194  and  _195
REMARK   81  A    between atoms: _200  and  _202
REMARK   82  A    between atoms: _202  and  _203
REMARK   83  A    between atoms: _202  and  _205
REMARK   84  A    between atoms: _208  and  _210
REMARK   85  A    between atoms: _210  and  _211
REMARK   86  A    between atoms: _210  and  _213
REMARK   87  A    between atoms: _213  and  _214
REMARK   88  A    between atoms: _219  and  _221
REMARK   89  A    between atoms: _221  and  _222
REMARK   90  A    between atoms: _221  and  _224
REMARK   91  A    between atoms: _224  and  _225
REMARK   92  A    between atoms: _228  and  _230
REMARK   93  A    between atoms: _230  and  _231
REMARK   94  A    between atoms: _230  and  _233
REMARK   95  A    between atoms: _233  and  _234
REMARK   96  A    between atoms: _237  and  _239
REMARK   97  A    between atoms: _239  and  _240
REMARK   98  A    between atoms: _242  and  _244
REMARK   99  A    between atoms: _244  and  _245
REMARK  100  A    between atoms: _244  and  _247
REMARK  101  A    between atoms: _247  and  _248
REMARK  102  A    between atoms: _248  and  _249
REMARK  103  A    between atoms: _249  and  _250
REMARK  104  A    between atoms: _259  and  _261
REMARK  105  A    between atoms: _261  and  _262
REMARK  106  A    between atoms: _261  and  _264
REMARK  107  A    between atoms: _264  and  _265
REMARK  108  A    between atoms: _270  and  _272
REMARK  109  A    between atoms: _272  and  _273
REMARK  110  A    between atoms: _272  and  _275
REMARK  111  A    between atoms: _275  and  _276
REMARK  112  A    between atoms: _276  and  _277
REMARK  113  A    between atoms: _277  and  _278
REMARK  114  A    between atoms: _287  and  _289
REMARK  115  A    between atoms: _289  and  _290
REMARK  116  A    between atoms: _289  and  _292
REMARK  117  A    between atoms: _292  and  _293
REMARK  118  A    between atoms: _296  and  _298
REMARK  119  A    between atoms: _298  and  _299
REMARK  120  A    between atoms: _298  and  _301
REMARK  121  A    between atoms: _301  and  _302
REMARK  122  A    between atoms: _305  and  _307
REMARK  123  A    between atoms: _307  and  _308
REMARK  124  A    between atoms: _307  and  _310
REMARK  125  A    between atoms: _310  and  _311
REMARK  126  A    between atoms: _314  and  _316
REMARK  127  A    between atoms: _316  and  _317
REMARK  128  A    between atoms: _316  and  _319
REMARK  129  A    between atoms: _319  and  _320
REMARK  130  A    between atoms: _323  and  _325
REMARK  131  A    between atoms: _325  and  _326
REMARK  132  A    between atoms: _328  and  _330
REMARK  133  A    between atoms: _330  and  _331
REMARK  134  A    between atoms: _334  and  _336
REMARK  135  A    between atoms: _336  and  _337
REMARK  136  A    between atoms: _336  and  _339
REMARK  137  A    between atoms: _339  and  _340
REMARK  138  A    between atoms: _343  and  _345
REMARK  139  A    between atoms: _345  and  _346
REMARK  140  A    between atoms: _345  and  _348
REMARK  141  A    between atoms: _348  and  _349
REMARK  142  A    between atoms: _352  and  _354
REMARK  143  A    between atoms: _354  and  _355
REMARK  144  A    between atoms: _354  and  _357
REMARK  145  A    between atoms: _357  and  _358
REMARK  146  A    between atoms: _361  and  _363
REMARK  147  A    between atoms: _363  and  _364
REMARK  148  A    between atoms: _363  and  _366
REMARK  149  A    between atoms: _369  and  _371
REMARK  150  A    between atoms: _371  and  _372
REMARK  151  A    between atoms: _371  and  _374
REMARK  152  A    between atoms: _374  and  _375
REMARK  153  A    between atoms: _378  and  _380
REMARK  154  A    between atoms: _380  and  _381
REMARK  155  A    between atoms: _383  and  _385
REMARK  156  A    between atoms: _385  and  _386
REMARK  157  A    between atoms: _388  and  _390
REMARK  158  A    between atoms: _390  and  _391
REMARK  159  A    between atoms: _390  and  _393
REMARK  160  A    between atoms: _393  and  _394
REMARK  161  A    between atoms: _397  and  _399
REMARK  162  A    between atoms: _399  and  _400
REMARK  163  A    between atoms: _402  and  _404
REMARK  164  A    between atoms: _404  and  _405
REMARK  165  A    between atoms: _407  and  _409
REMARK  166  A    between atoms: _409  and  _410
REMARK  167  A    between atoms: _409  and  _412
REMARK  168  A    between atoms: _412  and  _413
REMARK  169  A    between atoms: _416  and  _418
REMARK  170  A    between atoms: _418  and  _419
REMARK  171  A    between atoms: _418  and  _421
REMARK  172  A    between atoms: _421  and  _422
REMARK  173  A    between atoms: _426  and  _427
REMARK  174  A    between atoms: _432  and  _434
REMARK  175  A    between atoms: _434  and  _435
REMARK  176  A    between atoms: _434  and  _437
REMARK  177  A    between atoms: _437  and  _438
REMARK  178  A    between atoms: _442  and  _443
REMARK  179  A    between atoms: _448  and  _450
REMARK  180  A    between atoms: _450  and  _451
REMARK  181  A    between atoms: _450  and  _453
REMARK  182  A    between atoms: _456  and  _458
REMARK  183  A    between atoms: _458  and  _459
REMARK  184  A    between atoms: _458  and  _461
REMARK  185  A    between atoms: _461  and  _462
REMARK  186  A    between atoms: _467  and  _469
REMARK  187  A    between atoms: _469  and  _470
REMARK  188  A    between atoms: _469  and  _472
REMARK  189  A    between atoms: _472  and  _473
REMARK  190  A    between atoms: _476  and  _478
REMARK  191  A    between atoms: _478  and  _479
REMARK  192  A    between atoms: _478  and  _481
REMARK  193  A    between atoms: _481  and  _482
REMARK  194  A    between atoms: _485  and  _487
REMARK  195  A    between atoms: _487  and  _488
REMARK  196  A    between atoms: _490  and  _492
REMARK  197  A    between atoms: _492  and  _493
REMARK  198  A    between atoms: _492  and  _495
REMARK  199  A    between atoms: _495  and  _496
REMARK  200  A    between atoms: _496  and  _497
REMARK  201  A    between atoms: _497  and  _498
REMARK  202  A    between atoms: _507  and  _509
REMARK  203  A    between atoms: _509  and  _510
REMARK  204  A    between atoms: _509  and  _512
REMARK  205  A    between atoms: _512  and  _513
REMARK                            x       y       z     vdW  Elec       q    Type
REMARK                         _______ _______ _______ _____ _____    ______ ____
ROOT
ATOM      1  CB  LYS A   1      -6.804  11.291  43.067  0.00  0.00    -0.006 C 
ATOM      2  CG  LYS A   1      -8.318  11.228  42.748  0.00  0.00    -0.031 C 
ENDROOT
BRANCH   1   3
ATOM      3  CA  LYS A   1      -5.987   9.958  42.984  0.00  0.00    +0.155 C 
BRANCH   3   4
ATOM      4  N   LYS A   1      -4.667  10.183  43.574  0.00  0.00    -0.235 NA
ATOM      5  H   LYS A   1      -3.936  10.671  43.018  0.00  0.00    +0.142 HD
ENDBRANCH   3   4
BRANCH   3   6
ATOM      6  C   LYS A   1      -5.674   9.518  41.546  0.00  0.00    +0.229 C 
ATOM      7  O   LYS A   1      -4.591   9.813  41.053  0.00  0.00    -0.286 OA
ENDBRANCH   3   6
ENDBRANCH   1   3
BRANCH   2   8
ATOM      8  CD  LYS A   1      -9.080  12.572  42.560  0.00  0.00    +0.002 C 
BRANCH   8   9
ATOM      9  CE  LYS A   1     -10.645  12.509  42.607  0.00  0.00    -0.081 C 
BRANCH   9  10
ATOM     10  NZ  LYS A   1     -11.211  11.525  41.648  0.00  0.00    +0.381 N 
ATOM     11  HZ1 LYS A   1     -10.848  10.577  41.871  0.00  0.00    -0.089 HD
ATOM     12  HZ2 LYS A   1     -12.248  11.527  41.723  0.00  0.00    -0.089 HD
ATOM     13  HZ3 LYS A   1     -10.932  11.786  40.681  0.00  0.00    -0.089 HD
ENDBRANCH   9  10
ENDBRANCH   8   9
ENDBRANCH   2   8
TORSDOF 6
REMARK  Name = ../refined-set-2016/1qbs/1qbs_pocket.pdb
REMARK  205 active torsions:
REMARK  status: ('A' for Active; 'I' for Inactive)
REMARK    1  A    between atoms: _1  and  _3
REMARK    2  A    between atoms: _3  and  _4
REMARK    3  A    between atoms: _3  and  _6
REMARK    4  A    between atoms: _6  and  _7
REMARK    5  A    between atoms: _7  and  _8
REMARK    6  A    between atoms: _8  and  _9
REMARK    7  A    between atoms: _18  and  _20
REMARK    8  A    between atoms: _20  and  _21
REMARK    9  A    between atoms: _20  and  _23
REMARK   10  A    between atoms: _23  and  _24
REMARK   11  A    between atoms: _27  and  _29
REMARK   12  A    between atoms: _29  and  _30
REMARK   13  A    between atoms: _29  and  _32
REMARK   14  A    between atoms: _32  and  _33
REMARK   15  A    between atoms: _36  and  _38
REMARK   16  A    between atoms: _38  and  _39
REMARK   17  A    between atoms: _38  and  _41
REMARK   18  A    between atoms: _41  and  _42
REMARK   19  A    between atoms: _45  and  _47
REMARK   20  A    between atoms: _47  and  _48
REMARK   21  A    between atoms: _47  and  _50
REMARK   22  A    between atoms: _50  and  _51
REMARK   23  A    between atoms: _54  and  _56
REMARK   24  A    between atoms: _56  and  _57
REMARK   25  A    between atoms: _59  and  _61
REMARK   26  A    between atoms: _61  and  _62
REMARK   27  A    between atoms: _65  and  _67
REMARK   28  A    between atoms: _67  and  _68
REMARK   29  A    between atoms: _67  and  _70
REMARK   30  A    between atoms: _70  and  _71
REMARK   31  A    between atoms: _74  and  _76
REMARK   32  A    between atoms: _76  and  _77
REMARK   33  A    between atoms: _76  and  _79
REMARK   34  A    between atoms: _79  and  _80
REMARK   35  A    between atoms: _83  and  _85
REMARK   36  A    between atoms: _85  and  _86
REMARK   37  A    between atoms: _85  and  _88
REMARK   38  A    between atoms: _88  and  _89
REMARK   39  A    between atoms: _92  and  _94
REMARK   40  A    between atoms: _94  and  _95
REMARK   41  A    between atoms: _94  and  _97
REMARK   42  A    between atoms: _100  and  _102
REMARK   43  A    between atoms: _102  and  _103
REMARK   44  A    between atoms: _102  and  _105
REMARK   45  A    between atoms: _106  and  _107
REMARK   46  A    between atoms: _107  and  _108
REMARK   47  A    between atoms: _108  and  _109
REMARK   48  A    between atoms: _113  and  _115
REMARK   49  A    between atoms: _115  and  _116
REMARK   50  A    between atoms: _115  and  _118
REMARK   51  A    between atoms: _118  and  _119
REMARK   52  A    between atoms: _122  and  _124
REMARK   53  A    between atoms: _124  and  _125
REMARK   54  A    between atoms: _127  and  _129
REMARK   55  A    between atoms: _129  and  _130
REMARK   56  A    between atoms: _132  and  _134
REMARK   57  A    between atoms: _134  and  _135
REMARK   58  A    between atoms: _134  and  _137
REMARK   59  A    between atoms: _137  and  _138
REMARK   60  A    between atoms: _141  and  _143
REMARK   61  A    between atoms: _143  and  _144
REMARK   62  A    between atoms: _146  and  _148
REMARK   63  A    between atoms: _148  and  _149
REMARK   64  A    between atoms: _151  and  _153
REMARK   65  A    between atoms: _153  and  _154
REMARK   66  A    between atoms: _153  and  _156
REMARK   67  A    between atoms: _156  and  _157
REMARK   68  A    between atoms: _160  and  _162
REMARK   69  A    between atoms: _162  and  _163
REMARK   70  A    between atoms: _162  and  _165
REMARK   71  A    between atoms: _168  and  _170
REMARK   72  A    between atoms: _170  and  _171
REMARK   73  A    between atoms: _170  and  _173
REMARK   74  A    between atoms: _173  and  _174
REMARK   75  A    between atoms: _178  and  _179
REMARK   76  A    between atoms: _184  and  _186
REMARK   77  A    between atoms: _186  and  _187
REMARK   78  A    between atoms: _186  and  _189
REMARK   79  A    between atoms: _189  and  _190
REMARK   80  A    between atoms: _194  and  _195
REMARK   81  A    between atoms: _200  and  _202
REMARK   82  A    between atoms: _202  and  _203
REMARK   83  A    between atoms: _202  and  _205
REMARK   84  A    between atoms: _208  and  _210
REMARK   85  A    between atoms: _210  and  _211
REMARK   86  A    between atoms: _210  and  _213
REMARK   87  A    between atoms: _213  and  _214
REMARK   88  A    between atoms: _219  and  _221
REMARK   89  A    between atoms: _221  and  _222
REMARK   90  A    between atoms: _221  and  _224
REMARK   91  A    between atoms: _224  and  _225
REMARK   92  A    between atoms: _228  and  _230
REMARK   93  A    between atoms: _230  and  _231
REMARK   94  A    between atoms: _230  and  _233
REMARK   95  A    between atoms: _233  and  _234
REMARK   96  A    between atoms: _237  and  _239
REMARK   97  A    between atoms: _239  and  _240
REMARK   98  A    between atoms: _242  and  _244
REMARK   99  A    between atoms: _244  and  _245
REMARK  100  A    between atoms: _244  and  _247
REMARK  101  A    between atoms: _247  and  _248
REMARK  102  A    between atoms: _248  and  _249
REMARK  103  A    between atoms: _249  and  _250
REMARK  104  A    between atoms: _259  and  _261
REMARK  105  A    between atoms: _261  and  _262
REMARK  106  A    between atoms: _261  and  _264
REMARK  107  A    between atoms: _264  and  _265
REMARK  108  A    between atoms: _270  and  _272
REMARK  109  A    between atoms: _272  and  _273
REMARK  110  A    between atoms: _272  and  _275
REMARK  111  A    between atoms: _275  and  _276
REMARK  112  A    between atoms: _276  and  _277
REMARK  113  A    between atoms: _277  and  _278
REMARK  114  A    between atoms: _287  and  _289
REMARK  115  A    between atoms: _289  and  _290
REMARK  116  A    between atoms: _289  and  _292
REMARK  117  A    between atoms: _292  and  _293
REMARK  118  A    between atoms: _296  and  _298
REMARK  119  A    between atoms: _298  and  _299
REMARK  120  A    between atoms: _298  and  _301
REMARK  121  A    between atoms: _301  and  _302
REMARK  122  A    between atoms: _305  and  _307
REMARK  123  A    between atoms: _307  and  _308
REMARK  124  A    between atoms: _307  and  _310
REMARK  125  A    between atoms: _310  and  _311
REMARK  126  A    between atoms: _314  and  _316
REMARK  127  A    between atoms: _316  and  _317
REMARK  128  A    between atoms: _316  and  _319
REMARK  129  A    between atoms: _319  and  _320
REMARK  130  A    between atoms: _323  and  _325
REMARK  131  A    between atoms: _325  and  _326
REMARK  132  A    between atoms: _328  and  _330
REMARK  133  A    between atoms: _330  and  _331
REMARK  134  A    between atoms: _334  and  _336
REMARK  135  A    between atoms: _336  and  _337
REMARK  136  A    between atoms: _336  and  _339
REMARK  137  A    between atoms: _339  and  _340
REMARK  138  A    between atoms: _343  and  _345
REMARK  139  A    between atoms: _345  and  _346
REMARK  140  A    between atoms: _345  and  _348
REMARK  141  A    between atoms: _348  and  _349
REMARK  142  A    between atoms: _352  and  _354
REMARK  143  A    between atoms: _354  and  _355
REMARK  144  A    between atoms: _354  and  _357
REMARK  145  A    between atoms: _357  and  _358
REMARK  146  A    between atoms: _361  and  _363
REMARK  147  A    between atoms: _363  and  _364
REMARK  148  A    between atoms: _363  and  _366
REMARK  149  A    between atoms: _369  and  _371
REMARK  150  A    between atoms: _371  and  _372
REMARK  151  A    between atoms: _371  and  _374
REMARK  152  A    between atoms: _374  and  _375
REMARK  153  A    between atoms: _378  and  _380
REMARK  154  A    between atoms: _380  and  _381
REMARK  155  A    between atoms: _383  and  _385
REMARK  156  A    between atoms: _385  and  _386
REMARK  157  A    between atoms: _388  and  _390
REMARK  158  A    between atoms: _390  and  _391
REMARK  159  A    between atoms: _390  and  _393
REMARK  160  A    between atoms: _393  and  _394
REMARK  161  A    between atoms: _397  and  _399
REMARK  162  A    between atoms: _399  and  _400
REMARK  163  A    between atoms: _402  and  _404
REMARK  164  A    between atoms: _404  and  _405
REMARK  165  A    between atoms: _407  and  _409
REMARK  166  A    between atoms: _409  and  _410
REMARK  167  A    between atoms: _409  and  _412
REMARK  168  A    between atoms: _412  and  _413
REMARK  169  A    between atoms: _416  and  _418
REMARK  170  A    between atoms: _418  and  _419
REMARK  171  A    between atoms: _418  and  _421
REMARK  172  A    between atoms: _421  and  _422
REMARK  173  A    between atoms: _426  and  _427
REMARK  174  A    between atoms: _432  and  _434
REMARK  175  A    between atoms: _434  and  _435
REMARK  176  A    between atoms: _434  and  _437
REMARK  177  A    between atoms: _437  and  _438
REMARK  178  A    between atoms: _442  and  _443
REMARK  179  A    between atoms: _448  and  _450
REMARK  180  A    between atoms: _450  and  _451
REMARK  181  A    between atoms: _450  and  _453
REMARK  182  A    between atoms: _456  and  _458
REMARK  183  A    between atoms: _458  and  _459
REMARK  184  A    between atoms: _458  and  _461
REMARK  185  A    between atoms: _461  and  _462
REMARK  186  A    between atoms: _467  and  _469
REMARK  187  A    between atoms: _469  and  _470
REMARK  188  A    between atoms: _469  and  _472
REMARK  189  A    between atoms: _472  and  _473
REMARK  190  A    between atoms: _476  and  _478
REMARK  191  A    between atoms: _478  and  _479
REMARK  192  A    between atoms: _478  and  _481
REMARK  193  A    between atoms: _481  and  _482
REMARK  194  A    between atoms: _485  and  _487
REMARK  195  A    between atoms: _487  and  _488
REMARK  196  A    between atoms: _490  and  _492
REMARK  197  A    between atoms: _492  and  _493
REMARK  198  A    between atoms: _492  and  _495
REMARK  199  A    between atoms: _495  and  _496
REMARK  200  A    between atoms: _496  and  _497
REMARK  201  A    between atoms: _497  and  _498
REMARK  202  A    between atoms: _507  and  _509
REMARK  203  A    between atoms: _509  and  _510
REMARK  204  A    between atoms: _509  and  _512
REMARK  205  A    between atoms: _512  and  _513
REMARK                            x       y       z     vdW  Elec       q    Type
REMARK                         _______ _______ _______ _____ _____    ______ ____
ROOT
ATOM      1  C   GLY A   3      -9.266  10.462  28.876  0.00  0.00    +0.243 C 
ATOM      2  O   GLY A   3      -9.603   9.286  28.812  0.00  0.00    -0.273 OA
ATOM      3  N   ILE A   4      -9.016  11.193  27.802  0.00  0.00    -0.297 N 
ATOM      4  H   ILE A   4      -8.829  12.214  27.859  0.00  0.00    +0.150 HD
ENDROOT
BRANCH   3   5
ATOM      5  CA  ILE A   4      -9.020  10.475  26.536  0.00  0.00    +0.149 C 
BRANCH   5   6
ATOM      6  C   ILE A   4      -7.704   9.777  26.497  0.00  0.00    +0.241 C 
ATOM      7  O   ILE A   4      -6.713  10.384  26.815  0.00  0.00    -0.273 OA
ATOM      8  N   GLY A   5      -7.660   8.537  26.146  0.00  0.00    -0.295 N 
ATOM      9  H   GLY A   5      -8.496   7.982  25.872  0.00  0.00    +0.150 HD
BRANCH   8  10
ATOM     10  CA  GLY A   5      -6.306   8.002  26.177  0.00  0.00    +0.176 C 
BRANCH  10  11
ATOM     11  C   GLY A   5      -6.011   7.151  27.400  0.00  0.00    +0.243 C 
ATOM     12  N   GLY A   6      -6.831   7.274  28.448  0.00  0.00    -0.296 N 
ATOM     13  H   GLY A   6      -7.648   7.917  28.429  0.00  0.00    +0.150 HD
ATOM     14  O   GLY A   5      -5.070   6.369  27.387  0.00  0.00    -0.273 OA
BRANCH  12  15
ATOM     15  CA  GLY A   6      -6.526   6.467  29.614  0.00  0.00    +0.163 C 
BRANCH  15  16
ATOM     16  C   GLY A   6      -6.344   7.272  30.870  0.00  0.00    +0.229 C 
ATOM     17  O   GLY A   6      -6.673   8.440  30.937  0.00  0.00    -0.286 OA
ENDBRANCH  15  16
ENDBRANCH  12  15
ENDBRANCH  10  11
ENDBRANCH   8  10
ENDBRANCH   5   6
BRANCH   5  18
ATOM     18  CB  ILE A   4      -9.146  11.534  25.458  0.00  0.00    +0.027 C 
ATOM     19  CG2 ILE A   4      -7.985  11.737  24.463  0.00  0.00    +0.002 C 
BRANCH  18  20
ATOM     20  CG1 ILE A   4     -10.450  11.223  24.749  0.00  0.00    +0.002 C 
ATOM     21  CD1 ILE A   4     -10.962  12.452  24.034  0.00  0.00    +0.000 C 
ENDBRANCH  18  20
ENDBRANCH   5  18
ENDBRANCH   3   5
BRANCH   1  22
ATOM     22  CA  GLY A   3      -9.045  11.182  30.170  0.00  0.00    +0.176 C 
BRANCH  22  25
ATOM     23  C   GLY A   2      -9.549  10.332  32.312  0.00  0.00    +0.243 C 
ATOM     24  O   GLY A   2     -10.327  11.240  32.484  0.00  0.00    -0.273 OA
ATOM     25  N   GLY A   3      -8.814  10.216  31.225  0.00  0.00    -0.295 N 
ATOM     26  H   GLY A   3      -8.101   9.465  31.128  0.00  0.00    +0.150 HD
BRANCH  23  27
ATOM     27  CA  GLY A   2      -9.352   9.271  33.367  0.00  0.00    +0.176 C 
BRANCH  27  30
ATOM     28  C   ILE A   1      -8.133   9.826  35.354  0.00  0.00    +0.238 C 
ATOM     29  O   ILE A   1      -7.084   9.410  34.873  0.00  0.00    -0.274 OA
ATOM     30  N   GLY A   2      -9.291   9.815  34.718  0.00  0.00    -0.296 N 
ATOM     31  H   GLY A   2     -10.147  10.189  35.175  0.00  0.00    +0.150 HD
BRANCH  28  32
ATOM     32  CA  ILE A   1      -8.200  10.380  36.762  0.00  0.00    +0.145 C 
BRANCH  32  33
ATOM     33  N   ILE A   1      -7.134   9.765  37.540  0.00  0.00    -0.238 NA
ATOM     34  H   ILE A   1      -6.154   9.783  37.191  0.00  0.00    +0.142 HD
ENDBRANCH  32  33
BRANCH  32  35
ATOM     35  CB  ILE A   1      -8.140  11.945  36.750  0.00  0.00    +0.025 C 
ATOM     36  CG2 ILE A   1      -7.978  12.527  38.145  0.00  0.00    +0.002 C 
BRANCH  35  37
ATOM     37  CG1 ILE A   1      -7.059  12.547  35.877  0.00  0.00    +0.002 C 
ATOM     38  CD1 ILE A   1      -7.335  14.021  35.580  0.00  0.00    +0.000 C 
ENDBRANCH  35  37
ENDBRANCH  32  35
ENDBRANCH  28  32
ENDBRANCH  27  30
ENDBRANCH  23  27
ENDBRANCH  22  25
ENDBRANCH   1  22
TORSDOF 16
REMARK  Name = ../refined-set-2016/1qbs/1qbs_pocket.pdb
REMARK  205 active torsions:
REMARK  status: ('A' for Active; 'I' for Inactive)
REMARK    1  A    between atoms: _1  and  _3
REMARK    2  A    between atoms: _3  and  _4
REMARK    3  A    between atoms: _3  and  _6
REMARK    4  A    between atoms: _6  and  _7
REMARK    5  A    between atoms: _7  and  _8
REMARK    6  A    between atoms: _8  and  _9
REMARK    7  A    between atoms: _18  and  _20
REMARK    8  A    between atoms: _20  and  _21
REMARK    9  A    between atoms: _20  and  _23
REMARK   10  A    between atoms: _23  and  _24
REMARK   11  A    between atoms: _27  and  _29
REMARK   12  A    between atoms: _29  and  _30
REMARK   13  A    between atoms: _29  and  _32
REMARK   14  A    between atoms: _32  and  _33
REMARK   15  A    between atoms: _36  and  _38
REMARK   16  A    between atoms: _38  and  _39
REMARK   17  A    between atoms: _38  and  _41
REMARK   18  A    between atoms: _41  and  _42
REMARK   19  A    between atoms: _45  and  _47
REMARK   20  A    between atoms: _47  and  _48
REMARK   21  A    between atoms: _47  and  _50
REMARK   22  A    between atoms: _50  and  _51
REMARK   23  A    between atoms: _54  and  _56
REMARK   24  A    between atoms: _56  and  _57
REMARK   25  A    between atoms: _59  and  _61
REMARK   26  A    between atoms: _61  and  _62
REMARK   27  A    between atoms: _65  and  _67
REMARK   28  A    between atoms: _67  and  _68
REMARK   29  A    between atoms: _67  and  _70
REMARK   30  A    between atoms: _70  and  _71
REMARK   31  A    between atoms: _74  and  _76
REMARK   32  A    between atoms: _76  and  _77
REMARK   33  A    between atoms: _76  and  _79
REMARK   34  A    between atoms: _79  and  _80
REMARK   35  A    between atoms: _83  and  _85
REMARK   36  A    between atoms: _85  and  _86
REMARK   37  A    between atoms: _85  and  _88
REMARK   38  A    between atoms: _88  and  _89
REMARK   39  A    between atoms: _92  and  _94
REMARK   40  A    between atoms: _94  and  _95
REMARK   41  A    between atoms: _94  and  _97
REMARK   42  A    between atoms: _100  and  _102
REMARK   43  A    between atoms: _102  and  _103
REMARK   44  A    between atoms: _102  and  _105
REMARK   45  A    between atoms: _106  and  _107
REMARK   46  A    between atoms: _107  and  _108
REMARK   47  A    between atoms: _108  and  _109
REMARK   48  A    between atoms: _113  and  _115
REMARK   49  A    between atoms: _115  and  _116
REMARK   50  A    between atoms: _115  and  _118
REMARK   51  A    between atoms: _118  and  _119
REMARK   52  A    between atoms: _122  and  _124
REMARK   53  A    between atoms: _124  and  _125
REMARK   54  A    between atoms: _127  and  _129
REMARK   55  A    between atoms: _129  and  _130
REMARK   56  A    between atoms: _132  and  _134
REMARK   57  A    between atoms: _134  and  _135
REMARK   58  A    between atoms: _134  and  _137
REMARK   59  A    between atoms: _137  and  _138
REMARK   60  A    between atoms: _141  and  _143
REMARK   61  A    between atoms: _143  and  _144
REMARK   62  A    between atoms: _146  and  _148
REMARK   63  A    between atoms: _148  and  _149
REMARK   64  A    between atoms: _151  and  _153
REMARK   65  A    between atoms: _153  and  _154
REMARK   66  A    between atoms: _153  and  _156
REMARK   67  A    between atoms: _156  and  _157
REMARK   68  A    between atoms: _160  and  _162
REMARK   69  A    between atoms: _162  and  _163
REMARK   70  A    between atoms: _162  and  _165
REMARK   71  A    between atoms: _168  and  _170
REMARK   72  A    between atoms: _170  and  _171
REMARK   73  A    between atoms: _170  and  _173
REMARK   74  A    between atoms: _173  and  _174
REMARK   75  A    between atoms: _178  and  _179
REMARK   76  A    between atoms: _184  and  _186
REMARK   77  A    between atoms: _186  and  _187
REMARK   78  A    between atoms: _186  and  _189
REMARK   79  A    between atoms: _189  and  _190
REMARK   80  A    between atoms: _194  and  _195
REMARK   81  A    between atoms: _200  and  _202
REMARK   82  A    between atoms: _202  and  _203
REMARK   83  A    between atoms: _202  and  _205
REMARK   84  A    between atoms: _208  and  _210
REMARK   85  A    between atoms: _210  and  _211
REMARK   86  A    between atoms: _210  and  _213
REMARK   87  A    between atoms: _213  and  _214
REMARK   88  A    between atoms: _219  and  _221
REMARK   89  A    between atoms: _221  and  _222
REMARK   90  A    between atoms: _221  and  _224
REMARK   91  A    between atoms: _224  and  _225
REMARK   92  A    between atoms: _228  and  _230
REMARK   93  A    between atoms: _230  and  _231
REMARK   94  A    between atoms: _230  and  _233
REMARK   95  A    between atoms: _233  and  _234
REMARK   96  A    between atoms: _237  and  _239
REMARK   97  A    between atoms: _239  and  _240
REMARK   98  A    between atoms: _242  and  _244
REMARK   99  A    between atoms: _244  and  _245
REMARK  100  A    between atoms: _244  and  _247
REMARK  101  A    between atoms: _247  and  _248
REMARK  102  A    between atoms: _248  and  _249
REMARK  103  A    between atoms: _249  and  _250
REMARK  104  A    between atoms: _259  and  _261
REMARK  105  A    between atoms: _261  and  _262
REMARK  106  A    between atoms: _261  and  _264
REMARK  107  A    between atoms: _264  and  _265
REMARK  108  A    between atoms: _270  and  _272
REMARK  109  A    between atoms: _272  and  _273
REMARK  110  A    between atoms: _272  and  _275
REMARK  111  A    between atoms: _275  and  _276
REMARK  112  A    between atoms: _276  and  _277
REMARK  113  A    between atoms: _277  and  _278
REMARK  114  A    between atoms: _287  and  _289
REMARK  115  A    between atoms: _289  and  _290
REMARK  116  A    between atoms: _289  and  _292
REMARK  117  A    between atoms: _292  and  _293
REMARK  118  A    between atoms: _296  and  _298
REMARK  119  A    between atoms: _298  and  _299
REMARK  120  A    between atoms: _298  and  _301
REMARK  121  A    between atoms: _301  and  _302
REMARK  122  A    between atoms: _305  and  _307
REMARK  123  A    between atoms: _307  and  _308
REMARK  124  A    between atoms: _307  and  _310
REMARK  125  A    between atoms: _310  and  _311
REMARK  126  A    between atoms: _314  and  _316
REMARK  127  A    between atoms: _316  and  _317
REMARK  128  A    between atoms: _316  and  _319
REMARK  129  A    between atoms: _319  and  _320
REMARK  130  A    between atoms: _323  and  _325
REMARK  131  A    between atoms: _325  and  _326
REMARK  132  A    between atoms: _328  and  _330
REMARK  133  A    between atoms: _330  and  _331
REMARK  134  A    between atoms: _334  and  _336
REMARK  135  A    between atoms: _336  and  _337
REMARK  136  A    between atoms: _336  and  _339
REMARK  137  A    between atoms: _339  and  _340
REMARK  138  A    between atoms: _343  and  _345
REMARK  139  A    between atoms: _345  and  _346
REMARK  140  A    between atoms: _345  and  _348
REMARK  141  A    between atoms: _348  and  _349
REMARK  142  A    between atoms: _352  and  _354
REMARK  143  A    between atoms: _354  and  _355
REMARK  144  A    between atoms: _354  and  _357
REMARK  145  A    between atoms: _357  and  _358
REMARK  146  A    between atoms: _361  and  _363
REMARK  147  A    between atoms: _363  and  _364
REMARK  148  A    between atoms: _363  and  _366
REMARK  149  A    between atoms: _369  and  _371
REMARK  150  A    between atoms: _371  and  _372
REMARK  151  A    between atoms: _371  and  _374
REMARK  152  A    between atoms: _374  and  _375
REMARK  153  A    between atoms: _378  and  _380
REMARK  154  A    between atoms: _380  and  _381
REMARK  155  A    between atoms: _383  and  _385
REMARK  156  A    between atoms: _385  and  _386
REMARK  157  A    between atoms: _388  and  _390
REMARK  158  A    between atoms: _390  and  _391
REMARK  159  A    between atoms: _390  and  _393
REMARK  160  A    between atoms: _393  and  _394
REMARK  161  A    between atoms: _397  and  _399
REMARK  162  A    between atoms: _399  and  _400
REMARK  163  A    between atoms: _402  and  _404
REMARK  164  A    between atoms: _404  and  _405
REMARK  165  A    between atoms: _407  and  _409
REMARK  166  A    between atoms: _409  and  _410
REMARK  167  A    between atoms: _409  and  _412
REMARK  168  A    between atoms: _412  and  _413
REMARK  169  A    between atoms: _416  and  _418
REMARK  170  A    between atoms: _418  and  _419
REMARK  171  A    between atoms: _418  and  _421
REMARK  172  A    between atoms: _421  and  _422
REMARK  173  A    between atoms: _426  and  _427
REMARK  174  A    between atoms: _432  and  _434
REMARK  175  A    between atoms: _434  and  _435
REMARK  176  A    between atoms: _434  and  _437
REMARK  177  A    between atoms: _437  and  _438
REMARK  178  A    between atoms: _442  and  _443
REMARK  179  A    between atoms: _448  and  _450
REMARK  180  A    between atoms: _450  and  _451
REMARK  181  A    between atoms: _450  and  _453
REMARK  182  A    between atoms: _456  and  _458
REMARK  183  A    between atoms: _458  and  _459
REMARK  184  A    between atoms: _458  and  _461
REMARK  185  A    between atoms: _461  and  _462
REMARK  186  A    between atoms: _467  and  _469
REMARK  187  A    between atoms: _469  and  _470
REMARK  188  A    between atoms: _469  and  _472
REMARK  189  A    between atoms: _472  and  _473
REMARK  190  A    between atoms: _476  and  _478
REMARK  191  A    between atoms: _478  and  _479
REMARK  192  A    between atoms: _478  and  _481
REMARK  193  A    between atoms: _481  and  _482
REMARK  194  A    between atoms: _485  and  _487
REMARK  195  A    between atoms: _487  and  _488
REMARK  196  A    between atoms: _490  and  _492
REMARK  197  A    between atoms: _492  and  _493
REMARK  198  A    between atoms: _492  and  _495
REMARK  199  A    between atoms: _495  and  _496
REMARK  200  A    between atoms: _496  and  _497
REMARK  201  A    between atoms: _497  and  _498
REMARK  202  A    between atoms: _507  and  _509
REMARK  203  A    between atoms: _509  and  _510
REMARK  204  A    between atoms: _509  and  _512
REMARK  205  A    between atoms: _512  and  _513
REMARK                            x       y       z     vdW  Elec       q    Type
REMARK                         _______ _______ _______ _____ _____    ______ ____
ROOT
ATOM      1  CA  ILE A   1      -3.175   8.924  35.139  0.00  0.00    +0.133 C 
ENDROOT
BRANCH   1   2
ATOM      2  N   ILE A   1      -4.448   8.632  34.463  0.00  0.00    -0.239 NA
ATOM      3  H   ILE A   1      -5.279   9.240  34.605  0.00  0.00    +0.142 HD
ENDBRANCH   1   2
BRANCH   1   4
ATOM      4  C   ILE A   1      -3.336   8.916  36.638  0.00  0.00    +0.224 C 
ATOM      5  O   ILE A   1      -4.425   8.987  37.191  0.00  0.00    -0.287 OA
ENDBRANCH   1   4
BRANCH   1   6
ATOM      6  CB  ILE A   1      -2.541  10.262  34.698  0.00  0.00    +0.023 C 
ATOM      7  CG2 ILE A   1      -2.069  10.155  33.247  0.00  0.00    +0.002 C 
BRANCH   6   8
ATOM      8  CG1 ILE A   1      -3.417  11.513  35.011  0.00  0.00    +0.002 C 
ATOM      9  CD1 ILE A   1      -2.732  12.873  34.912  0.00  0.00    +0.000 C 
ENDBRANCH   6   8
ENDBRANCH   1   6
TORSDOF 4
REMARK  Name = ../refined-set-2016/1qbs/1qbs_pocket.pdb
REMARK  205 active torsions:
REMARK  status: ('A' for Active; 'I' for Inactive)
REMARK    1  A    between atoms: _1  and  _3
REMARK    2  A    between atoms: _3  and  _4
REMARK    3  A    between atoms: _3  and  _6
REMARK    4  A    between atoms: _6  and  _7
REMARK    5  A    between atoms: _7  and  _8
REMARK    6  A    between atoms: _8  and  _9
REMARK    7  A    between atoms: _18  and  _20
REMARK    8  A    between atoms: _20  and  _21
REMARK    9  A    between atoms: _20  and  _23
REMARK   10  A    between atoms: _23  and  _24
REMARK   11  A    between atoms: _27  and  _29
REMARK   12  A    between atoms: _29  and  _30
REMARK   13  A    between atoms: _29  and  _32
REMARK   14  A    between atoms: _32  and  _33
REMARK   15  A    between atoms: _36  and  _38
REMARK   16  A    between atoms: _38  and  _39
REMARK   17  A    between atoms: _38  and  _41
REMARK   18  A    between atoms: _41  and  _42
REMARK   19  A    between atoms: _45  and  _47
REMARK   20  A    between atoms: _47  and  _48
REMARK   21  A    between atoms: _47  and  _50
REMARK   22  A    between atoms: _50  and  _51
REMARK   23  A    between atoms: _54  and  _56
REMARK   24  A    between atoms: _56  and  _57
REMARK   25  A    between atoms: _59  and  _61
REMARK   26  A    between atoms: _61  and  _62
REMARK   27  A    between atoms: _65  and  _67
REMARK   28  A    between atoms: _67  and  _68
REMARK   29  A    between atoms: _67  and  _70
REMARK   30  A    between atoms: _70  and  _71
REMARK   31  A    between atoms: _74  and  _76
REMARK   32  A    between atoms: _76  and  _77
REMARK   33  A    between atoms: _76  and  _79
REMARK   34  A    between atoms: _79  and  _80
REMARK   35  A    between atoms: _83  and  _85
REMARK   36  A    between atoms: _85  and  _86
REMARK   37  A    between atoms: _85  and  _88
REMARK   38  A    between atoms: _88  and  _89
REMARK   39  A    between atoms: _92  and  _94
REMARK   40  A    between atoms: _94  and  _95
REMARK   41  A    between atoms: _94  and  _97
REMARK   42  A    between atoms: _100  and  _102
REMARK   43  A    between atoms: _102  and  _103
REMARK   44  A    between atoms: _102  and  _105
REMARK   45  A    between atoms: _106  and  _107
REMARK   46  A    between atoms: _107  and  _108
REMARK   47  A    between atoms: _108  and  _109
REMARK   48  A    between atoms: _113  and  _115
REMARK   49  A    between atoms: _115  and  _116
REMARK   50  A    between atoms: _115  and  _118
REMARK   51  A    between atoms: _118  and  _119
REMARK   52  A    between atoms: _122  and  _124
REMARK   53  A    between atoms: _124  and  _125
REMARK   54  A    between atoms: _127  and  _129
REMARK   55  A    between atoms: _129  and  _130
REMARK   56  A    between atoms: _132  and  _134
REMARK   57  A    between atoms: _134  and  _135
REMARK   58  A    between atoms: _134  and  _137
REMARK   59  A    between atoms: _137  and  _138
REMARK   60  A    between atoms: _141  and  _143
REMARK   61  A    between atoms: _143  and  _144
REMARK   62  A    between atoms: _146  and  _148
REMARK   63  A    between atoms: _148  and  _149
REMARK   64  A    between atoms: _151  and  _153
REMARK   65  A    between atoms: _153  and  _154
REMARK   66  A    between atoms: _153  and  _156
REMARK   67  A    between atoms: _156  and  _157
REMARK   68  A    between atoms: _160  and  _162
REMARK   69  A    between atoms: _162  and  _163
REMARK   70  A    between atoms: _162  and  _165
REMARK   71  A    between atoms: _168  and  _170
REMARK   72  A    between atoms: _170  and  _171
REMARK   73  A    between atoms: _170  and  _173
REMARK   74  A    between atoms: _173  and  _174
REMARK   75  A    between atoms: _178  and  _179
REMARK   76  A    between atoms: _184  and  _186
REMARK   77  A    between atoms: _186  and  _187
REMARK   78  A    between atoms: _186  and  _189
REMARK   79  A    between atoms: _189  and  _190
REMARK   80  A    between atoms: _194  and  _195
REMARK   81  A    between atoms: _200  and  _202
REMARK   82  A    between atoms: _202  and  _203
REMARK   83  A    between atoms: _202  and  _205
REMARK   84  A    between atoms: _208  and  _210
REMARK   85  A    between atoms: _210  and  _211
REMARK   86  A    between atoms: _210  and  _213
REMARK   87  A    between atoms: _213  and  _214
REMARK   88  A    between atoms: _219  and  _221
REMARK   89  A    between atoms: _221  and  _222
REMARK   90  A    between atoms: _221  and  _224
REMARK   91  A    between atoms: _224  and  _225
REMARK   92  A    between atoms: _228  and  _230
REMARK   93  A    between atoms: _230  and  _231
REMARK   94  A    between atoms: _230  and  _233
REMARK   95  A    between atoms: _233  and  _234
REMARK   96  A    between atoms: _237  and  _239
REMARK   97  A    between atoms: _239  and  _240
REMARK   98  A    between atoms: _242  and  _244
REMARK   99  A    between atoms: _244  and  _245
REMARK  100  A    between atoms: _244  and  _247
REMARK  101  A    between atoms: _247  and  _248
REMARK  102  A    between atoms: _248  and  _249
REMARK  103  A    between atoms: _249  and  _250
REMARK  104  A    between atoms: _259  and  _261
REMARK  105  A    between atoms: _261  and  _262
REMARK  106  A    between atoms: _261  and  _264
REMARK  107  A    between atoms: _264  and  _265
REMARK  108  A    between atoms: _270  and  _272
REMARK  109  A    between atoms: _272  and  _273
REMARK  110  A    between atoms: _272  and  _275
REMARK  111  A    between atoms: _275  and  _276
REMARK  112  A    between atoms: _276  and  _277
REMARK  113  A    between atoms: _277  and  _278
REMARK  114  A    between atoms: _287  and  _289
REMARK  115  A    between atoms: _289  and  _290
REMARK  116  A    between atoms: _289  and  _292
REMARK  117  A    between atoms: _292  and  _293
REMARK  118  A    between atoms: _296  and  _298
REMARK  119  A    between atoms: _298  and  _299
REMARK  120  A    between atoms: _298  and  _301
REMARK  121  A    between atoms: _301  and  _302
REMARK  122  A    between atoms: _305  and  _307
REMARK  123  A    between atoms: _307  and  _308
REMARK  124  A    between atoms: _307  and  _310
REMARK  125  A    between atoms: _310  and  _311
REMARK  126  A    between atoms: _314  and  _316
REMARK  127  A    between atoms: _316  and  _317
REMARK  128  A    between atoms: _316  and  _319
REMARK  129  A    between atoms: _319  and  _320
REMARK  130  A    between atoms: _323  and  _325
REMARK  131  A    between atoms: _325  and  _326
REMARK  132  A    between atoms: _328  and  _330
REMARK  133  A    between atoms: _330  and  _331
REMARK  134  A    between atoms: _334  and  _336
REMARK  135  A    between atoms: _336  and  _337
REMARK  136  A    between atoms: _336  and  _339
REMARK  137  A    between atoms: _339  and  _340
REMARK  138  A    between atoms: _343  and  _345
REMARK  139  A    between atoms: _345  and  _346
REMARK  140  A    between atoms: _345  and  _348
REMARK  141  A    between atoms: _348  and  _349
REMARK  142  A    between atoms: _352  and  _354
REMARK  143  A    between atoms: _354  and  _355
REMARK  144  A    between atoms: _354  and  _357
REMARK  145  A    between atoms: _357  and  _358
REMARK  146  A    between atoms: _361  and  _363
REMARK  147  A    between atoms: _363  and  _364
REMARK  148  A    between atoms: _363  and  _366
REMARK  149  A    between atoms: _369  and  _371
REMARK  150  A    between atoms: _371  and  _372
REMARK  151  A    between atoms: _371  and  _374
REMARK  152  A    between atoms: _374  and  _375
REMARK  153  A    between atoms: _378  and  _380
REMARK  154  A    between atoms: _380  and  _381
REMARK  155  A    between atoms: _383  and  _385
REMARK  156  A    between atoms: _385  and  _386
REMARK  157  A    between atoms: _388  and  _390
REMARK  158  A    between atoms: _390  and  _391
REMARK  159  A    between atoms: _390  and  _393
REMARK  160  A    between atoms: _393  and  _394
REMARK  161  A    between atoms: _397  and  _399
REMARK  162  A    between atoms: _399  and  _400
REMARK  163  A    between atoms: _402  and  _404
REMARK  164  A    between atoms: _404  and  _405
REMARK  165  A    between atoms: _407  and  _409
REMARK  166  A    between atoms: _409  and  _410
REMARK  167  A    between atoms: _409  and  _412
REMARK  168  A    between atoms: _412  and  _413
REMARK  169  A    between atoms: _416  and  _418
REMARK  170  A    between atoms: _418  and  _419
REMARK  171  A    between atoms: _418  and  _421
REMARK  172  A    between atoms: _421  and  _422
REMARK  173  A    between atoms: _426  and  _427
REMARK  174  A    between atoms: _432  and  _434
REMARK  175  A    between atoms: _434  and  _435
REMARK  176  A    between atoms: _434  and  _437
REMARK  177  A    between atoms: _437  and  _438
REMARK  178  A    between atoms: _442  and  _443
REMARK  179  A    between atoms: _448  and  _450
REMARK  180  A    between atoms: _450  and  _451
REMARK  181  A    between atoms: _450  and  _453
REMARK  182  A    between atoms: _456  and  _458
REMARK  183  A    between atoms: _458  and  _459
REMARK  184  A    between atoms: _458  and  _461
REMARK  185  A    between atoms: _461  and  _462
REMARK  186  A    between atoms: _467  and  _469
REMARK  187  A    between atoms: _469  and  _470
REMARK  188  A    between atoms: _469  and  _472
REMARK  189  A    between atoms: _472  and  _473
REMARK  190  A    between atoms: _476  and  _478
REMARK  191  A    between atoms: _478  and  _479
REMARK  192  A    between atoms: _478  and  _481
REMARK  193  A    between atoms: _481  and  _482
REMARK  194  A    between atoms: _485  and  _487
REMARK  195  A    between atoms: _487  and  _488
REMARK  196  A    between atoms: _490  and  _492
REMARK  197  A    between atoms: _492  and  _493
REMARK  198  A    between atoms: _492  and  _495
REMARK  199  A    between atoms: _495  and  _496
REMARK  200  A    between atoms: _496  and  _497
REMARK  201  A    between atoms: _497  and  _498
REMARK  202  A    between atoms: _507  and  _509
REMARK  203  A    between atoms: _509  and  _510
REMARK  204  A    between atoms: _509  and  _512
REMARK  205  A    between atoms: _512  and  _513
REMARK                            x       y       z     vdW  Elec       q    Type
REMARK                         _______ _______ _______ _____ _____    ______ ____
ROOT
ATOM      1  CA  VAL A   1      -2.277  12.394  40.286  0.00  0.00    +0.133 C 
ENDROOT
BRANCH   1   2
ATOM      2  CB  VAL A   1      -3.606  12.860  39.678  0.00  0.00    +0.023 C 
ATOM      3  CG2 VAL A   1      -4.691  13.284  40.664  0.00  0.00    +0.002 C 
ATOM      4  CG1 VAL A   1      -3.388  13.735  38.435  0.00  0.00    +0.002 C 
ENDBRANCH   1   2
BRANCH   1   5
ATOM      5  N   VAL A   1      -2.379  10.979  40.054  0.00  0.00    -0.239 NA
ATOM      6  H   VAL A   1      -2.965  10.405  40.693  0.00  0.00    +0.142 HD
ENDBRANCH   1   5
BRANCH   1   7
ATOM      7  C   VAL A   1      -2.186  12.552  41.776  0.00  0.00    +0.224 C 
ATOM      8  O   VAL A   1      -2.722  11.759  42.526  0.00  0.00    -0.287 OA
ENDBRANCH   1   7
TORSDOF 3
REMARK  Name = ../refined-set-2016/1qbs/1qbs_pocket.pdb
REMARK  205 active torsions:
REMARK  status: ('A' for Active; 'I' for Inactive)
REMARK    1  A    between atoms: _1  and  _3
REMARK    2  A    between atoms: _3  and  _4
REMARK    3  A    between atoms: _3  and  _6
REMARK    4  A    between atoms: _6  and  _7
REMARK    5  A    between atoms: _7  and  _8
REMARK    6  A    between atoms: _8  and  _9
REMARK    7  A    between atoms: _18  and  _20
REMARK    8  A    between atoms: _20  and  _21
REMARK    9  A    between atoms: _20  and  _23
REMARK   10  A    between atoms: _23  and  _24
REMARK   11  A    between atoms: _27  and  _29
REMARK   12  A    between atoms: _29  and  _30
REMARK   13  A    between atoms: _29  and  _32
REMARK   14  A    between atoms: _32  and  _33
REMARK   15  A    between atoms: _36  and  _38
REMARK   16  A    between atoms: _38  and  _39
REMARK   17  A    between atoms: _38  and  _41
REMARK   18  A    between atoms: _41  and  _42
REMARK   19  A    between atoms: _45  and  _47
REMARK   20  A    between atoms: _47  and  _48
REMARK   21  A    between atoms: _47  and  _50
REMARK   22  A    between atoms: _50  and  _51
REMARK   23  A    between atoms: _54  and  _56
REMARK   24  A    between atoms: _56  and  _57
REMARK   25  A    between atoms: _59  and  _61
REMARK   26  A    between atoms: _61  and  _62
REMARK   27  A    between atoms: _65  and  _67
REMARK   28  A    between atoms: _67  and  _68
REMARK   29  A    between atoms: _67  and  _70
REMARK   30  A    between atoms: _70  and  _71
REMARK   31  A    between atoms: _74  and  _76
REMARK   32  A    between atoms: _76  and  _77
REMARK   33  A    between atoms: _76  and  _79
REMARK   34  A    between atoms: _79  and  _80
REMARK   35  A    between atoms: _83  and  _85
REMARK   36  A    between atoms: _85  and  _86
REMARK   37  A    between atoms: _85  and  _88
REMARK   38  A    between atoms: _88  and  _89
REMARK   39  A    between atoms: _92  and  _94
REMARK   40  A    between atoms: _94  and  _95
REMARK   41  A    between atoms: _94  and  _97
REMARK   42  A    between atoms: _100  and  _102
REMARK   43  A    between atoms: _102  and  _103
REMARK   44  A    between atoms: _102  and  _105
REMARK   45  A    between atoms: _106  and  _107
REMARK   46  A    between atoms: _107  and  _108
REMARK   47  A    between atoms: _108  and  _109
REMARK   48  A    between atoms: _113  and  _115
REMARK   49  A    between atoms: _115  and  _116
REMARK   50  A    between atoms: _115  and  _118
REMARK   51  A    between atoms: _118  and  _119
REMARK   52  A    between atoms: _122  and  _124
REMARK   53  A    between atoms: _124  and  _125
REMARK   54  A    between atoms: _127  and  _129
REMARK   55  A    between atoms: _129  and  _130
REMARK   56  A    between atoms: _132  and  _134
REMARK   57  A    between atoms: _134  and  _135
REMARK   58  A    between atoms: _134  and  _137
REMARK   59  A    between atoms: _137  and  _138
REMARK   60  A    between atoms: _141  and  _143
REMARK   61  A    between atoms: _143  and  _144
REMARK   62  A    between atoms: _146  and  _148
REMARK   63  A    between atoms: _148  and  _149
REMARK   64  A    between atoms: _151  and  _153
REMARK   65  A    between atoms: _153  and  _154
REMARK   66  A    between atoms: _153  and  _156
REMARK   67  A    between atoms: _156  and  _157
REMARK   68  A    between atoms: _160  and  _162
REMARK   69  A    between atoms: _162  and  _163
REMARK   70  A    between atoms: _162  and  _165
REMARK   71  A    between atoms: _168  and  _170
REMARK   72  A    between atoms: _170  and  _171
REMARK   73  A    between atoms: _170  and  _173
REMARK   74  A    between atoms: _173  and  _174
REMARK   75  A    between atoms: _178  and  _179
REMARK   76  A    between atoms: _184  and  _186
REMARK   77  A    between atoms: _186  and  _187
REMARK   78  A    between atoms: _186  and  _189
REMARK   79  A    between atoms: _189  and  _190
REMARK   80  A    between atoms: _194  and  _195
REMARK   81  A    between atoms: _200  and  _202
REMARK   82  A    between atoms: _202  and  _203
REMARK   83  A    between atoms: _202  and  _205
REMARK   84  A    between atoms: _208  and  _210
REMARK   85  A    between atoms: _210  and  _211
REMARK   86  A    between atoms: _210  and  _213
REMARK   87  A    between atoms: _213  and  _214
REMARK   88  A    between atoms: _219  and  _221
REMARK   89  A    between atoms: _221  and  _222
REMARK   90  A    between atoms: _221  and  _224
REMARK   91  A    between atoms: _224  and  _225
REMARK   92  A    between atoms: _228  and  _230
REMARK   93  A    between atoms: _230  and  _231
REMARK   94  A    between atoms: _230  and  _233
REMARK   95  A    between atoms: _233  and  _234
REMARK   96  A    between atoms: _237  and  _239
REMARK   97  A    between atoms: _239  and  _240
REMARK   98  A    between atoms: _242  and  _244
REMARK   99  A    between atoms: _244  and  _245
REMARK  100  A    between atoms: _244  and  _247
REMARK  101  A    between atoms: _247  and  _248
REMARK  102  A    between atoms: _248  and  _249
REMARK  103  A    between atoms: _249  and  _250
REMARK  104  A    between atoms: _259  and  _261
REMARK  105  A    between atoms: _261  and  _262
REMARK  106  A    between atoms: _261  and  _264
REMARK  107  A    between atoms: _264  and  _265
REMARK  108  A    between atoms: _270  and  _272
REMARK  109  A    between atoms: _272  and  _273
REMARK  110  A    between atoms: _272  and  _275
REMARK  111  A    between atoms: _275  and  _276
REMARK  112  A    between atoms: _276  and  _277
REMARK  113  A    between atoms: _277  and  _278
REMARK  114  A    between atoms: _287  and  _289
REMARK  115  A    between atoms: _289  and  _290
REMARK  116  A    between atoms: _289  and  _292
REMARK  117  A    between atoms: _292  and  _293
REMARK  118  A    between atoms: _296  and  _298
REMARK  119  A    between atoms: _298  and  _299
REMARK  120  A    between atoms: _298  and  _301
REMARK  121  A    between atoms: _301  and  _302
REMARK  122  A    between atoms: _305  and  _307
REMARK  123  A    between atoms: _307  and  _308
REMARK  124  A    between atoms: _307  and  _310
REMARK  125  A    between atoms: _310  and  _311
REMARK  126  A    between atoms: _314  and  _316
REMARK  127  A    between atoms: _316  and  _317
REMARK  128  A    between atoms: _316  and  _319
REMARK  129  A    between atoms: _319  and  _320
REMARK  130  A    between atoms: _323  and  _325
REMARK  131  A    between atoms: _325  and  _326
REMARK  132  A    between atoms: _328  and  _330
REMARK  133  A    between atoms: _330  and  _331
REMARK  134  A    between atoms: _334  and  _336
REMARK  135  A    between atoms: _336  and  _337
REMARK  136  A    between atoms: _336  and  _339
REMARK  137  A    between atoms: _339  and  _340
REMARK  138  A    between atoms: _343  and  _345
REMARK  139  A    between atoms: _345  and  _346
REMARK  140  A    between atoms: _345  and  _348
REMARK  141  A    between atoms: _348  and  _349
REMARK  142  A    between atoms: _352  and  _354
REMARK  143  A    between atoms: _354  and  _355
REMARK  144  A    between atoms: _354  and  _357
REMARK  145  A    between atoms: _357  and  _358
REMARK  146  A    between atoms: _361  and  _363
REMARK  147  A    between atoms: _363  and  _364
REMARK  148  A    between atoms: _363  and  _366
REMARK  149  A    between atoms: _369  and  _371
REMARK  150  A    between atoms: _371  and  _372
REMARK  151  A    between atoms: _371  and  _374
REMARK  152  A    between atoms: _374  and  _375
REMARK  153  A    between atoms: _378  and  _380
REMARK  154  A    between atoms: _380  and  _381
REMARK  155  A    between atoms: _383  and  _385
REMARK  156  A    between atoms: _385  and  _386
REMARK  157  A    between atoms: _388  and  _390
REMARK  158  A    between atoms: _390  and  _391
REMARK  159  A    between atoms: _390  and  _393
REMARK  160  A    between atoms: _393  and  _394
REMARK  161  A    between atoms: _397  and  _399
REMARK  162  A    between atoms: _399  and  _400
REMARK  163  A    between atoms: _402  and  _404
REMARK  164  A    between atoms: _404  and  _405
REMARK  165  A    between atoms: _407  and  _409
REMARK  166  A    between atoms: _409  and  _410
REMARK  167  A    between atoms: _409  and  _412
REMARK  168  A    between atoms: _412  and  _413
REMARK  169  A    between atoms: _416  and  _418
REMARK  170  A    between atoms: _418  and  _419
REMARK  171  A    between atoms: _418  and  _421
REMARK  172  A    between atoms: _421  and  _422
REMARK  173  A    between atoms: _426  and  _427
REMARK  174  A    between atoms: _432  and  _434
REMARK  175  A    between atoms: _434  and  _435
REMARK  176  A    between atoms: _434  and  _437
REMARK  177  A    between atoms: _437  and  _438
REMARK  178  A    between atoms: _442  and  _443
REMARK  179  A    between atoms: _448  and  _450
REMARK  180  A    between atoms: _450  and  _451
REMARK  181  A    between atoms: _450  and  _453
REMARK  182  A    between atoms: _456  and  _458
REMARK  183  A    between atoms: _458  and  _459
REMARK  184  A    between atoms: _458  and  _461
REMARK  185  A    between atoms: _461  and  _462
REMARK  186  A    between atoms: _467  and  _469
REMARK  187  A    between atoms: _469  and  _470
REMARK  188  A    between atoms: _469  and  _472
REMARK  189  A    between atoms: _472  and  _473
REMARK  190  A    between atoms: _476  and  _478
REMARK  191  A    between atoms: _478  and  _479
REMARK  192  A    between atoms: _478  and  _481
REMARK  193  A    between atoms: _481  and  _482
REMARK  194  A    between atoms: _485  and  _487
REMARK  195  A    between atoms: _487  and  _488
REMARK  196  A    between atoms: _490  and  _492
REMARK  197  A    between atoms: _492  and  _493
REMARK  198  A    between atoms: _492  and  _495
REMARK  199  A    between atoms: _495  and  _496
REMARK  200  A    between atoms: _496  and  _497
REMARK  201  A    between atoms: _497  and  _498
REMARK  202  A    between atoms: _507  and  _509
REMARK  203  A    between atoms: _509  and  _510
REMARK  204  A    between atoms: _509  and  _512
REMARK  205  A    between atoms: _512  and  _513
REMARK                            x       y       z     vdW  Elec       q    Type
REMARK                         _______ _______ _______ _____ _____    ______ ____
ROOT
ATOM      1  CA  LEU A   1      -4.308  17.740  41.178  0.00  0.00    +0.133 C 
ENDROOT
BRANCH   1   2
ATOM      2  N   LEU A   1      -4.891  19.054  41.432  0.00  0.00    -0.239 NA
ATOM      3  H   LEU A   1      -5.412  19.512  40.657  0.00  0.00    +0.142 HD
ENDBRANCH   1   2
BRANCH   1   4
ATOM      4  C   LEU A   1      -3.008  18.018  40.455  0.00  0.00    +0.224 C 
ATOM      5  O   LEU A   1      -3.015  18.773  39.492  0.00  0.00    -0.287 OA
ENDBRANCH   1   4
BRANCH   1   6
ATOM      6  CB  LEU A   1      -5.267  16.992  40.199  0.00  0.00    +0.025 C 
BRANCH   6   7
ATOM      7  CG  LEU A   1      -6.488  16.186  40.672  0.00  0.00    +0.002 C 
ATOM      8  CD2 LEU A   1      -7.032  16.577  42.038  0.00  0.00    +0.000 C 
ATOM      9  CD1 LEU A   1      -7.556  16.181  39.587  0.00  0.00    +0.000 C 
ENDBRANCH   6   7
ENDBRANCH   1   6
TORSDOF 4
REMARK  Name = ../refined-set-2016/1qbs/1qbs_pocket.pdb
REMARK  205 active torsions:
REMARK  status: ('A' for Active; 'I' for Inactive)
REMARK    1  A    between atoms: _1  and  _3
REMARK    2  A    between atoms: _3  and  _4
REMARK    3  A    between atoms: _3  and  _6
REMARK    4  A    between atoms: _6  and  _7
REMARK    5  A    between atoms: _7  and  _8
REMARK    6  A    between atoms: _8  and  _9
REMARK    7  A    between atoms: _18  and  _20
REMARK    8  A    between atoms: _20  and  _21
REMARK    9  A    between atoms: _20  and  _23
REMARK   10  A    between atoms: _23  and  _24
REMARK   11  A    between atoms: _27  and  _29
REMARK   12  A    between atoms: _29  and  _30
REMARK   13  A    between atoms: _29  and  _32
REMARK   14  A    between atoms: _32  and  _33
REMARK   15  A    between atoms: _36  and  _38
REMARK   16  A    between atoms: _38  and  _39
REMARK   17  A    between atoms: _38  and  _41
REMARK   18  A    between atoms: _41  and  _42
REMARK   19  A    between atoms: _45  and  _47
REMARK   20  A    between atoms: _47  and  _48
REMARK   21  A    between atoms: _47  and  _50
REMARK   22  A    between atoms: _50  and  _51
REMARK   23  A    between atoms: _54  and  _56
REMARK   24  A    between atoms: _56  and  _57
REMARK   25  A    between atoms: _59  and  _61
REMARK   26  A    between atoms: _61  and  _62
REMARK   27  A    between atoms: _65  and  _67
REMARK   28  A    between atoms: _67  and  _68
REMARK   29  A    between atoms: _67  and  _70
REMARK   30  A    between atoms: _70  and  _71
REMARK   31  A    between atoms: _74  and  _76
REMARK   32  A    between atoms: _76  and  _77
REMARK   33  A    between atoms: _76  and  _79
REMARK   34  A    between atoms: _79  and  _80
REMARK   35  A    between atoms: _83  and  _85
REMARK   36  A    between atoms: _85  and  _86
REMARK   37  A    between atoms: _85  and  _88
REMARK   38  A    between atoms: _88  and  _89
REMARK   39  A    between atoms: _92  and  _94
REMARK   40  A    between atoms: _94  and  _95
REMARK   41  A    between atoms: _94  and  _97
REMARK   42  A    between atoms: _100  and  _102
REMARK   43  A    between atoms: _102  and  _103
REMARK   44  A    between atoms: _102  and  _105
REMARK   45  A    between atoms: _106  and  _107
REMARK   46  A    between atoms: _107  and  _108
REMARK   47  A    between atoms: _108  and  _109
REMARK   48  A    between atoms: _113  and  _115
REMARK   49  A    between atoms: _115  and  _116
REMARK   50  A    between atoms: _115  and  _118
REMARK   51  A    between atoms: _118  and  _119
REMARK   52  A    between atoms: _122  and  _124
REMARK   53  A    between atoms: _124  and  _125
REMARK   54  A    between atoms: _127  and  _129
REMARK   55  A    between atoms: _129  and  _130
REMARK   56  A    between atoms: _132  and  _134
REMARK   57  A    between atoms: _134  and  _135
REMARK   58  A    between atoms: _134  and  _137
REMARK   59  A    between atoms: _137  and  _138
REMARK   60  A    between atoms: _141  and  _143
REMARK   61  A    between atoms: _143  and  _144
REMARK   62  A    between atoms: _146  and  _148
REMARK   63  A    between atoms: _148  and  _149
REMARK   64  A    between atoms: _151  and  _153
REMARK   65  A    between atoms: _153  and  _154
REMARK   66  A    between atoms: _153  and  _156
REMARK   67  A    between atoms: _156  and  _157
REMARK   68  A    between atoms: _160  and  _162
REMARK   69  A    between atoms: _162  and  _163
REMARK   70  A    between atoms: _162  and  _165
REMARK   71  A    between atoms: _168  and  _170
REMARK   72  A    between atoms: _170  and  _171
REMARK   73  A    between atoms: _170  and  _173
REMARK   74  A    between atoms: _173  and  _174
REMARK   75  A    between atoms: _178  and  _179
REMARK   76  A    between atoms: _184  and  _186
REMARK   77  A    between atoms: _186  and  _187
REMARK   78  A    between atoms: _186  and  _189
REMARK   79  A    between atoms: _189  and  _190
REMARK   80  A    between atoms: _194  and  _195
REMARK   81  A    between atoms: _200  and  _202
REMARK   82  A    between atoms: _202  and  _203
REMARK   83  A    between atoms: _202  and  _205
REMARK   84  A    between atoms: _208  and  _210
REMARK   85  A    between atoms: _210  and  _211
REMARK   86  A    between atoms: _210  and  _213
REMARK   87  A    between atoms: _213  and  _214
REMARK   88  A    between atoms: _219  and  _221
REMARK   89  A    between atoms: _221  and  _222
REMARK   90  A    between atoms: _221  and  _224
REMARK   91  A    between atoms: _224  and  _225
REMARK   92  A    between atoms: _228  and  _230
REMARK   93  A    between atoms: _230  and  _231
REMARK   94  A    between atoms: _230  and  _233
REMARK   95  A    between atoms: _233  and  _234
REMARK   96  A    between atoms: _237  and  _239
REMARK   97  A    between atoms: _239  and  _240
REMARK   98  A    between atoms: _242  and  _244
REMARK   99  A    between atoms: _244  and  _245
REMARK  100  A    between atoms: _244  and  _247
REMARK  101  A    between atoms: _247  and  _248
REMARK  102  A    between atoms: _248  and  _249
REMARK  103  A    between atoms: _249  and  _250
REMARK  104  A    between atoms: _259  and  _261
REMARK  105  A    between atoms: _261  and  _262
REMARK  106  A    between atoms: _261  and  _264
REMARK  107  A    between atoms: _264  and  _265
REMARK  108  A    between atoms: _270  and  _272
REMARK  109  A    between atoms: _272  and  _273
REMARK  110  A    between atoms: _272  and  _275
REMARK  111  A    between atoms: _275  and  _276
REMARK  112  A    between atoms: _276  and  _277
REMARK  113  A    between atoms: _277  and  _278
REMARK  114  A    between atoms: _287  and  _289
REMARK  115  A    between atoms: _289  and  _290
REMARK  116  A    between atoms: _289  and  _292
REMARK  117  A    between atoms: _292  and  _293
REMARK  118  A    between atoms: _296  and  _298
REMARK  119  A    between atoms: _298  and  _299
REMARK  120  A    between atoms: _298  and  _301
REMARK  121  A    between atoms: _301  and  _302
REMARK  122  A    between atoms: _305  and  _307
REMARK  123  A    between atoms: _307  and  _308
REMARK  124  A    between atoms: _307  and  _310
REMARK  125  A    between atoms: _310  and  _311
REMARK  126  A    between atoms: _314  and  _316
REMARK  127  A    between atoms: _316  and  _317
REMARK  128  A    between atoms: _316  and  _319
REMARK  129  A    between atoms: _319  and  _320
REMARK  130  A    between atoms: _323  and  _325
REMARK  131  A    between atoms: _325  and  _326
REMARK  132  A    between atoms: _328  and  _330
REMARK  133  A    between atoms: _330  and  _331
REMARK  134  A    between atoms: _334  and  _336
REMARK  135  A    between atoms: _336  and  _337
REMARK  136  A    between atoms: _336  and  _339
REMARK  137  A    between atoms: _339  and  _340
REMARK  138  A    between atoms: _343  and  _345
REMARK  139  A    between atoms: _345  and  _346
REMARK  140  A    between atoms: _345  and  _348
REMARK  141  A    between atoms: _348  and  _349
REMARK  142  A    between atoms: _352  and  _354
REMARK  143  A    between atoms: _354  and  _355
REMARK  144  A    between atoms: _354  and  _357
REMARK  145  A    between atoms: _357  and  _358
REMARK  146  A    between atoms: _361  and  _363
REMARK  147  A    between atoms: _363  and  _364
REMARK  148  A    between atoms: _363  and  _366
REMARK  149  A    between atoms: _369  and  _371
REMARK  150  A    between atoms: _371  and  _372
REMARK  151  A    between atoms: _371  and  _374
REMARK  152  A    between atoms: _374  and  _375
REMARK  153  A    between atoms: _378  and  _380
REMARK  154  A    between atoms: _380  and  _381
REMARK  155  A    between atoms: _383  and  _385
REMARK  156  A    between atoms: _385  and  _386
REMARK  157  A    between atoms: _388  and  _390
REMARK  158  A    between atoms: _390  and  _391
REMARK  159  A    between atoms: _390  and  _393
REMARK  160  A    between atoms: _393  and  _394
REMARK  161  A    between atoms: _397  and  _399
REMARK  162  A    between atoms: _399  and  _400
REMARK  163  A    between atoms: _402  and  _404
REMARK  164  A    between atoms: _404  and  _405
REMARK  165  A    between atoms: _407  and  _409
REMARK  166  A    between atoms: _409  and  _410
REMARK  167  A    between atoms: _409  and  _412
REMARK  168  A    between atoms: _412  and  _413
REMARK  169  A    between atoms: _416  and  _418
REMARK  170  A    between atoms: _418  and  _419
REMARK  171  A    between atoms: _418  and  _421
REMARK  172  A    between atoms: _421  and  _422
REMARK  173  A    between atoms: _426  and  _427
REMARK  174  A    between atoms: _432  and  _434
REMARK  175  A    between atoms: _434  and  _435
REMARK  176  A    between atoms: _434  and  _437
REMARK  177  A    between atoms: _437  and  _438
REMARK  178  A    between atoms: _442  and  _443
REMARK  179  A    between atoms: _448  and  _450
REMARK  180  A    between atoms: _450  and  _451
REMARK  181  A    between atoms: _450  and  _453
REMARK  182  A    between atoms: _456  and  _458
REMARK  183  A    between atoms: _458  and  _459
REMARK  184  A    between atoms: _458  and  _461
REMARK  185  A    between atoms: _461  and  _462
REMARK  186  A    between atoms: _467  and  _469
REMARK  187  A    between atoms: _469  and  _470
REMARK  188  A    between atoms: _469  and  _472
REMARK  189  A    between atoms: _472  and  _473
REMARK  190  A    between atoms: _476  and  _478
REMARK  191  A    between atoms: _478  and  _479
REMARK  192  A    between atoms: _478  and  _481
REMARK  193  A    between atoms: _481  and  _482
REMARK  194  A    between atoms: _485  and  _487
REMARK  195  A    between atoms: _487  and  _488
REMARK  196  A    between atoms: _490  and  _492
REMARK  197  A    between atoms: _492  and  _493
REMARK  198  A    between atoms: _492  and  _495
REMARK  199  A    between atoms: _495  and  _496
REMARK  200  A    between atoms: _496  and  _497
REMARK  201  A    between atoms: _497  and  _498
REMARK  202  A    between atoms: _507  and  _509
REMARK  203  A    between atoms: _509  and  _510
REMARK  204  A    between atoms: _509  and  _512
REMARK  205  A    between atoms: _512  and  _513
REMARK                            x       y       z     vdW  Elec       q    Type
REMARK                         _______ _______ _______ _____ _____    ______ ____
ROOT
ATOM      1  CA  ILE A   6      -5.890  22.640  32.800  0.00  0.00    +0.149 C 
ENDROOT
BRANCH   1   3
ATOM      2  C   ASN A   5      -3.495  23.115  32.350  0.00  0.00    +0.241 C 
ATOM      3  N   ILE A   6      -4.457  22.510  33.081  0.00  0.00    -0.297 N 
ATOM      4  H   ILE A   6      -4.165  21.920  33.886  0.00  0.00    +0.150 HD
ATOM      5  O   ASN A   5      -3.724  23.918  31.449  0.00  0.00    -0.273 OA
BRANCH   2   6
ATOM      6  CA  ASN A   5      -2.057  22.755  32.646  0.00  0.00    +0.158 C 
BRANCH   6   9
ATOM      7  C   VAL A   4      -1.554  21.203  30.931  0.00  0.00    +0.241 C 
ATOM      8  O   VAL A   4      -2.060  20.336  31.633  0.00  0.00    -0.273 OA
ATOM      9  N   ASN A   5      -1.437  22.442  31.350  0.00  0.00    -0.297 N 
ATOM     10  H   ASN A   5      -0.933  23.163  30.795  0.00  0.00    +0.150 HD
BRANCH   7  11
ATOM     11  CA  VAL A   4      -1.034  20.875  29.550  0.00  0.00    +0.149 C 
BRANCH  11  13
ATOM     12  C   PRO A   3       0.501  19.043  28.966  0.00  0.00    +0.241 C 
ATOM     13  N   VAL A   4      -0.639  19.464  29.542  0.00  0.00    -0.297 N 
ATOM     14  H   VAL A   4      -1.261  18.765  29.997  0.00  0.00    +0.150 HD
ATOM     15  O   PRO A   3       1.303  19.789  28.429  0.00  0.00    -0.273 OA
BRANCH  12  22
ATOM     16  C   THR A   2       0.441  16.820  31.149  0.00  0.00    +0.246 C 
ATOM     17  O   THR A   2       1.424  17.428  31.509  0.00  0.00    -0.273 OA
ATOM     18  N   PRO A   3       0.092  16.720  29.888  0.00  0.00    -0.272 N 
ATOM     19  CD  PRO A   3      -0.919  15.841  29.299  0.00  0.00    +0.094 C 
ATOM     20  CG  PRO A   3      -1.003  16.266  27.850  0.00  0.00    +0.024 C 
ATOM     21  CB  PRO A   3       0.374  16.898  27.621  0.00  0.00    +0.031 C 
ATOM     22  CA  PRO A   3       0.793  17.549  28.935  0.00  0.00    +0.152 C 
BRANCH  16  23
ATOM     23  CA  THR A   2      -0.454  16.134  32.139  0.00  0.00    +0.176 C 
BRANCH  23  25
ATOM     24  C   PRO A   1       0.915  14.488  33.150  0.00  0.00    +0.239 C 
ATOM     25  N   THR A   2       0.414  15.707  33.223  0.00  0.00    -0.295 N 
ATOM     26  H   THR A   2       0.631  16.335  34.023  0.00  0.00    +0.150 HD
ATOM     27  O   PRO A   1       0.634  13.713  32.241  0.00  0.00    -0.274 OA
BRANCH  24  32
ATOM     28  N   PRO A   1       1.259  14.011  35.615  0.00  0.00    -0.210 NA
ATOM     29  CD  PRO A   1       1.140  12.642  36.120  0.00  0.00    +0.089 C 
ATOM     30  CG  PRO A   1       1.448  11.738  34.919  0.00  0.00    +0.021 C 
ATOM     31  CB  PRO A   1       2.348  12.613  34.072  0.00  0.00    +0.028 C 
ATOM     32  CA  PRO A   1       1.856  14.065  34.268  0.00  0.00    +0.149 C 
ENDBRANCH  24  32
ENDBRANCH  23  25
BRANCH  23  33
ATOM     33  CB  THR A   2      -1.570  17.045  32.722  0.00  0.00    +0.137 C 
ATOM     34  CG2 THR A   2      -0.995  18.111  33.636  0.00  0.00    +0.034 C 
BRANCH  33  35
ATOM     35  OG1 THR A   2      -2.401  17.621  31.697  0.00  0.00    -0.382 OA
ATOM     36  HG1 THR A   2      -1.843  18.170  31.091  0.00  0.00    +0.210 HD
ENDBRANCH  33  35
ENDBRANCH  23  33
ENDBRANCH  16  23
ENDBRANCH  12  22
ENDBRANCH  11  13
BRANCH  11  37
ATOM     37  CB  VAL A   4      -2.128  21.196  28.527  0.00  0.00    +0.027 C 
ATOM     38  CG2 VAL A   4      -3.293  20.251  28.665  0.00  0.00    +0.002 C 
ATOM     39  CG1 VAL A   4      -1.656  21.093  27.100  0.00  0.00    +0.002 C 
ENDBRANCH  11  37
ENDBRANCH   7  11
ENDBRANCH   6   9
BRANCH   6  40
ATOM     40  CB  ASN A   5      -1.357  23.978  33.264  0.00  0.00    +0.114 C 
BRANCH  40  41
ATOM     41  CG  ASN A   5       0.071  23.709  33.735  0.00  0.00    +0.222 C 
ATOM     42  OD1 ASN A   5       0.350  22.758  34.437  0.00  0.00    -0.275 OA
ATOM     43  ND2 ASN A   5       0.993  24.550  33.325  0.00  0.00    -0.329 N 
ATOM     44 HD21 ASN A   5       1.986  24.408  33.601  0.00  0.00    +0.145 HD
ATOM     45 HD22 ASN A   5       0.730  25.357  32.724  0.00  0.00    +0.145 HD
ENDBRANCH  40  41
ENDBRANCH   6  40
ENDBRANCH   2   6
ENDBRANCH   1   3
BRANCH   1  46
ATOM     46  C   ILE A   6      -6.554  23.268  34.005  0.00  0.00    +0.241 C 
ATOM     47  O   ILE A   6      -6.471  22.727  35.104  0.00  0.00    -0.273 OA
ATOM     48  N   ILE A   7      -7.254  24.377  33.769  0.00  0.00    -0.297 N 
ATOM     49  H   ILE A   7      -7.118  24.886  32.872  0.00  0.00    +0.150 HD
BRANCH  48  50
ATOM     50  CA  ILE A   7      -8.222  24.897  34.762  0.00  0.00    +0.149 C 
BRANCH  50  51
ATOM     51  C   ILE A   7      -9.640  24.507  34.437  0.00  0.00    +0.241 C 
ATOM     52  N   GLY A   8     -10.135  23.652  35.285  0.00  0.00    -0.295 N 
ATOM     53  H   GLY A   8      -9.571  23.348  36.104  0.00  0.00    +0.150 HD
ATOM     54  O   ILE A   7     -10.230  24.927  33.467  0.00  0.00    -0.273 OA
BRANCH  52  55
ATOM     55  CA  GLY A   8     -11.474  23.122  35.089  0.00  0.00    +0.176 C 
BRANCH  55  56
ATOM     56  C   GLY A   8     -12.528  23.698  36.018  0.00  0.00    +0.243 C 
ATOM     57  O   GLY A   8     -12.347  24.667  36.753  0.00  0.00    -0.273 OA
ATOM     58  N   ARG A   9     -13.708  23.095  35.964  0.00  0.00    -0.297 N 
ATOM     59  H   ARG A   9     -13.828  22.137  35.577  0.00  0.00    +0.150 HD
BRANCH  58  60
ATOM     60  CA  ARG A   9     -14.828  23.875  36.489  0.00  0.00    +0.149 C 
BRANCH  60  61
ATOM     61  C   ARG A   9     -14.899  24.141  37.979  0.00  0.00    +0.241 C 
ATOM     62  N   ASN A  10     -14.243  23.306  38.748  0.00  0.00    -0.298 N 
ATOM     63  H   ASN A  10     -13.833  22.429  38.369  0.00  0.00    +0.150 HD
ATOM     64  O   ARG A   9     -15.500  25.100  38.421  0.00  0.00    -0.273 OA
BRANCH  62  65
ATOM     65  CA  ASN A  10     -14.112  23.661  40.166  0.00  0.00    +0.146 C 
BRANCH  65  66
ATOM     66  C   ASN A  10     -13.561  25.085  40.462  0.00  0.00    +0.227 C 
ATOM     67  O   ASN A  10     -13.932  25.725  41.442  0.00  0.00    -0.286 OA
ENDBRANCH  65  66
BRANCH  65  68
ATOM     68  CB  ASN A  10     -13.270  22.588  40.915  0.00  0.00    +0.112 C 
BRANCH  68  69
ATOM     69  CG  ASN A  10     -11.788  22.706  40.607  0.00  0.00    +0.222 C 
ATOM     70  ND2 ASN A  10     -10.982  22.538  41.655  0.00  0.00    -0.329 N 
ATOM     71 HD21 ASN A  10     -11.384  22.358  42.597  0.00  0.00    +0.145 HD
ATOM     72 HD22 ASN A  10      -9.951  22.587  41.531  0.00  0.00    +0.145 HD
ATOM     73  OD1 ASN A  10     -11.385  22.922  39.467  0.00  0.00    -0.275 OA
ENDBRANCH  68  69
ENDBRANCH  65  68
ENDBRANCH  62  65
ENDBRANCH  60  61
BRANCH  60  74
ATOM     74  CB  ARG A   9     -16.166  23.324  36.017  0.00  0.00    +0.033 C 
BRANCH  74  75
ATOM     75  CG  ARG A   9     -16.154  22.897  34.551  0.00  0.00    +0.045 C 
BRANCH  75  76
ATOM     76  CD  ARG A   9     -17.569  22.525  34.136  0.00  0.00    +0.174 C 
BRANCH  76  77
ATOM     77  NE  ARG A   9     -18.179  21.640  35.111  0.00  0.00    -0.265 N 
ATOM     78  HE  ARG A   9     -18.679  22.029  35.936  0.00  0.00    +0.259 HD
ATOM     79  CZ  ARG A   9     -18.090  20.336  34.936  0.00  0.00    +0.342 C 
ATOM     80  NH2 ARG A   9     -18.497  19.606  35.978  0.00  0.00    -0.292 N 
ATOM     81 HH21 ARG A   9     -18.848  20.076  36.837  0.00  0.00    +0.255 HD
ATOM     82 HH22 ARG A   9     -18.463  18.568  35.930  0.00  0.00    +0.255 HD
ATOM     83  NH1 ARG A   9     -17.595  19.799  33.778  0.00  0.00    -0.292 N 
ATOM     84 HH11 ARG A   9     -17.536  18.767  33.667  0.00  0.00    +0.255 HD
ATOM     85 HH12 ARG A   9     -17.278  20.423  33.009  0.00  0.00    +0.255 HD
ENDBRANCH  76  77
ENDBRANCH  75  76
ENDBRANCH  74  75
ENDBRANCH  60  74
ENDBRANCH  58  60
ENDBRANCH  55  56
ENDBRANCH  52  55
ENDBRANCH  50  51
BRANCH  50  86
ATOM     86  CB  ILE A   7      -8.146  26.413  34.849  0.00  0.00    +0.027 C 
ATOM     87  CG2 ILE A   7      -9.269  27.074  35.667  0.00  0.00    +0.002 C 
BRANCH  86  88
ATOM     88  CG1 ILE A   7      -6.788  26.774  35.424  0.00  0.00    +0.002 C 
ATOM     89  CD1 ILE A   7      -6.480  28.156  34.909  0.00  0.00    +0.000 C 
ENDBRANCH  86  88
ENDBRANCH  50  86
ENDBRANCH  48  50
ENDBRANCH   1  46
BRANCH   1  90
ATOM     90  CB  ILE A   6      -6.512  21.213  32.593  0.00  0.00    +0.027 C 
ATOM     91  CG2 ILE A   6      -8.037  21.218  32.433  0.00  0.00    +0.002 C 
BRANCH  90  92
ATOM     92  CG1 ILE A   6      -5.951  20.422  31.404  0.00  0.00    +0.002 C 
ATOM     93  CD1 ILE A   6      -6.298  18.930  31.506  0.00  0.00    +0.000 C 
ENDBRANCH  90  92
ENDBRANCH   1  90
TORSDOF 33
REMARK  Name = ../refined-set-2016/1qbs/1qbs_pocket.pdb
REMARK  205 active torsions:
REMARK  status: ('A' for Active; 'I' for Inactive)
REMARK    1  A    between atoms: _1  and  _3
REMARK    2  A    between atoms: _3  and  _4
REMARK    3  A    between atoms: _3  and  _6
REMARK    4  A    between atoms: _6  and  _7
REMARK    5  A    between atoms: _7  and  _8
REMARK    6  A    between atoms: _8  and  _9
REMARK    7  A    between atoms: _18  and  _20
REMARK    8  A    between atoms: _20  and  _21
REMARK    9  A    between atoms: _20  and  _23
REMARK   10  A    between atoms: _23  and  _24
REMARK   11  A    between atoms: _27  and  _29
REMARK   12  A    between atoms: _29  and  _30
REMARK   13  A    between atoms: _29  and  _32
REMARK   14  A    between atoms: _32  and  _33
REMARK   15  A    between atoms: _36  and  _38
REMARK   16  A    between atoms: _38  and  _39
REMARK   17  A    between atoms: _38  and  _41
REMARK   18  A    between atoms: _41  and  _42
REMARK   19  A    between atoms: _45  and  _47
REMARK   20  A    between atoms: _47  and  _48
REMARK   21  A    between atoms: _47  and  _50
REMARK   22  A    between atoms: _50  and  _51
REMARK   23  A    between atoms: _54  and  _56
REMARK   24  A    between atoms: _56  and  _57
REMARK   25  A    between atoms: _59  and  _61
REMARK   26  A    between atoms: _61  and  _62
REMARK   27  A    between atoms: _65  and  _67
REMARK   28  A    between atoms: _67  and  _68
REMARK   29  A    between atoms: _67  and  _70
REMARK   30  A    between atoms: _70  and  _71
REMARK   31  A    between atoms: _74  and  _76
REMARK   32  A    between atoms: _76  and  _77
REMARK   33  A    between atoms: _76  and  _79
REMARK   34  A    between atoms: _79  and  _80
REMARK   35  A    between atoms: _83  and  _85
REMARK   36  A    between atoms: _85  and  _86
REMARK   37  A    between atoms: _85  and  _88
REMARK   38  A    between atoms: _88  and  _89
REMARK   39  A    between atoms: _92  and  _94
REMARK   40  A    between atoms: _94  and  _95
REMARK   41  A    between atoms: _94  and  _97
REMARK   42  A    between atoms: _100  and  _102
REMARK   43  A    between atoms: _102  and  _103
REMARK   44  A    between atoms: _102  and  _105
REMARK   45  A    between atoms: _106  and  _107
REMARK   46  A    between atoms: _107  and  _108
REMARK   47  A    between atoms: _108  and  _109
REMARK   48  A    between atoms: _113  and  _115
REMARK   49  A    between atoms: _115  and  _116
REMARK   50  A    between atoms: _115  and  _118
REMARK   51  A    between atoms: _118  and  _119
REMARK   52  A    between atoms: _122  and  _124
REMARK   53  A    between atoms: _124  and  _125
REMARK   54  A    between atoms: _127  and  _129
REMARK   55  A    between atoms: _129  and  _130
REMARK   56  A    between atoms: _132  and  _134
REMARK   57  A    between atoms: _134  and  _135
REMARK   58  A    between atoms: _134  and  _137
REMARK   59  A    between atoms: _137  and  _138
REMARK   60  A    between atoms: _141  and  _143
REMARK   61  A    between atoms: _143  and  _144
REMARK   62  A    between atoms: _146  and  _148
REMARK   63  A    between atoms: _148  and  _149
REMARK   64  A    between atoms: _151  and  _153
REMARK   65  A    between atoms: _153  and  _154
REMARK   66  A    between atoms: _153  and  _156
REMARK   67  A    between atoms: _156  and  _157
REMARK   68  A    between atoms: _160  and  _162
REMARK   69  A    between atoms: _162  and  _163
REMARK   70  A    between atoms: _162  and  _165
REMARK   71  A    between atoms: _168  and  _170
REMARK   72  A    between atoms: _170  and  _171
REMARK   73  A    between atoms: _170  and  _173
REMARK   74  A    between atoms: _173  and  _174
REMARK   75  A    between atoms: _178  and  _179
REMARK   76  A    between atoms: _184  and  _186
REMARK   77  A    between atoms: _186  and  _187
REMARK   78  A    between atoms: _186  and  _189
REMARK   79  A    between atoms: _189  and  _190
REMARK   80  A    between atoms: _194  and  _195
REMARK   81  A    between atoms: _200  and  _202
REMARK   82  A    between atoms: _202  and  _203
REMARK   83  A    between atoms: _202  and  _205
REMARK   84  A    between atoms: _208  and  _210
REMARK   85  A    between atoms: _210  and  _211
REMARK   86  A    between atoms: _210  and  _213
REMARK   87  A    between atoms: _213  and  _214
REMARK   88  A    between atoms: _219  and  _221
REMARK   89  A    between atoms: _221  and  _222
REMARK   90  A    between atoms: _221  and  _224
REMARK   91  A    between atoms: _224  and  _225
REMARK   92  A    between atoms: _228  and  _230
REMARK   93  A    between atoms: _230  and  _231
REMARK   94  A    between atoms: _230  and  _233
REMARK   95  A    between atoms: _233  and  _234
REMARK   96  A    between atoms: _237  and  _239
REMARK   97  A    between atoms: _239  and  _240
REMARK   98  A    between atoms: _242  and  _244
REMARK   99  A    between atoms: _244  and  _245
REMARK  100  A    between atoms: _244  and  _247
REMARK  101  A    between atoms: _247  and  _248
REMARK  102  A    between atoms: _248  and  _249
REMARK  103  A    between atoms: _249  and  _250
REMARK  104  A    between atoms: _259  and  _261
REMARK  105  A    between atoms: _261  and  _262
REMARK  106  A    between atoms: _261  and  _264
REMARK  107  A    between atoms: _264  and  _265
REMARK  108  A    between atoms: _270  and  _272
REMARK  109  A    between atoms: _272  and  _273
REMARK  110  A    between atoms: _272  and  _275
REMARK  111  A    between atoms: _275  and  _276
REMARK  112  A    between atoms: _276  and  _277
REMARK  113  A    between atoms: _277  and  _278
REMARK  114  A    between atoms: _287  and  _289
REMARK  115  A    between atoms: _289  and  _290
REMARK  116  A    between atoms: _289  and  _292
REMARK  117  A    between atoms: _292  and  _293
REMARK  118  A    between atoms: _296  and  _298
REMARK  119  A    between atoms: _298  and  _299
REMARK  120  A    between atoms: _298  and  _301
REMARK  121  A    between atoms: _301  and  _302
REMARK  122  A    between atoms: _305  and  _307
REMARK  123  A    between atoms: _307  and  _308
REMARK  124  A    between atoms: _307  and  _310
REMARK  125  A    between atoms: _310  and  _311
REMARK  126  A    between atoms: _314  and  _316
REMARK  127  A    between atoms: _316  and  _317
REMARK  128  A    between atoms: _316  and  _319
REMARK  129  A    between atoms: _319  and  _320
REMARK  130  A    between atoms: _323  and  _325
REMARK  131  A    between atoms: _325  and  _326
REMARK  132  A    between atoms: _328  and  _330
REMARK  133  A    between atoms: _330  and  _331
REMARK  134  A    between atoms: _334  and  _336
REMARK  135  A    between atoms: _336  and  _337
REMARK  136  A    between atoms: _336  and  _339
REMARK  137  A    between atoms: _339  and  _340
REMARK  138  A    between atoms: _343  and  _345
REMARK  139  A    between atoms: _345  and  _346
REMARK  140  A    between atoms: _345  and  _348
REMARK  141  A    between atoms: _348  and  _349
REMARK  142  A    between atoms: _352  and  _354
REMARK  143  A    between atoms: _354  and  _355
REMARK  144  A    between atoms: _354  and  _357
REMARK  145  A    between atoms: _357  and  _358
REMARK  146  A    between atoms: _361  and  _363
REMARK  147  A    between atoms: _363  and  _364
REMARK  148  A    between atoms: _363  and  _366
REMARK  149  A    between atoms: _369  and  _371
REMARK  150  A    between atoms: _371  and  _372
REMARK  151  A    between atoms: _371  and  _374
REMARK  152  A    between atoms: _374  and  _375
REMARK  153  A    between atoms: _378  and  _380
REMARK  154  A    between atoms: _380  and  _381
REMARK  155  A    between atoms: _383  and  _385
REMARK  156  A    between atoms: _385  and  _386
REMARK  157  A    between atoms: _388  and  _390
REMARK  158  A    between atoms: _390  and  _391
REMARK  159  A    between atoms: _390  and  _393
REMARK  160  A    between atoms: _393  and  _394
REMARK  161  A    between atoms: _397  and  _399
REMARK  162  A    between atoms: _399  and  _400
REMARK  163  A    between atoms: _402  and  _404
REMARK  164  A    between atoms: _404  and  _405
REMARK  165  A    between atoms: _407  and  _409
REMARK  166  A    between atoms: _409  and  _410
REMARK  167  A    between atoms: _409  and  _412
REMARK  168  A    between atoms: _412  and  _413
REMARK  169  A    between atoms: _416  and  _418
REMARK  170  A    between atoms: _418  and  _419
REMARK  171  A    between atoms: _418  and  _421
REMARK  172  A    between atoms: _421  and  _422
REMARK  173  A    between atoms: _426  and  _427
REMARK  174  A    between atoms: _432  and  _434
REMARK  175  A    between atoms: _434  and  _435
REMARK  176  A    between atoms: _434  and  _437
REMARK  177  A    between atoms: _437  and  _438
REMARK  178  A    between atoms: _442  and  _443
REMARK  179  A    between atoms: _448  and  _450
REMARK  180  A    between atoms: _450  and  _451
REMARK  181  A    between atoms: _450  and  _453
REMARK  182  A    between atoms: _456  and  _458
REMARK  183  A    between atoms: _458  and  _459
REMARK  184  A    between atoms: _458  and  _461
REMARK  185  A    between atoms: _461  and  _462
REMARK  186  A    between atoms: _467  and  _469
REMARK  187  A    between atoms: _469  and  _470
REMARK  188  A    between atoms: _469  and  _472
REMARK  189  A    between atoms: _472  and  _473
REMARK  190  A    between atoms: _476  and  _478
REMARK  191  A    between atoms: _478  and  _479
REMARK  192  A    between atoms: _478  and  _481
REMARK  193  A    between atoms: _481  and  _482
REMARK  194  A    between atoms: _485  and  _487
REMARK  195  A    between atoms: _487  and  _488
REMARK  196  A    between atoms: _490  and  _492
REMARK  197  A    between atoms: _492  and  _493
REMARK  198  A    between atoms: _492  and  _495
REMARK  199  A    between atoms: _495  and  _496
REMARK  200  A    between atoms: _496  and  _497
REMARK  201  A    between atoms: _497  and  _498
REMARK  202  A    between atoms: _507  and  _509
REMARK  203  A    between atoms: _509  and  _510
REMARK  204  A    between atoms: _509  and  _512
REMARK  205  A    between atoms: _512  and  _513
REMARK                            x       y       z     vdW  Elec       q    Type
REMARK                         _______ _______ _______ _____ _____    ______ ____
ROOT
ATOM      1  NE  ARG A   1     -19.367  15.850  32.874  0.00  0.00    -0.265 N 
ATOM      2  CZ  ARG A   1     -18.706  14.747  33.222  0.00  0.00    +0.342 C 
ATOM      3  NH2 ARG A   1     -18.970  14.135  34.387  0.00  0.00    -0.292 N 
ATOM      4 HH21 ARG A   1     -19.695  14.522  35.025  0.00  0.00    +0.255 HD
ATOM      5 HH22 ARG A   1     -18.450  13.274  34.652  0.00  0.00    +0.255 HD
ATOM      6  NH1 ARG A   1     -17.798  14.269  32.366  0.00  0.00    -0.292 N 
ATOM      7 HH11 ARG A   1     -17.262  13.410  32.603  0.00  0.00    +0.255 HD
ATOM      8 HH12 ARG A   1     -17.627  14.756  31.463  0.00  0.00    +0.255 HD
ATOM      9  HE  ARG A   1     -19.064  16.417  32.056  0.00  0.00    +0.259 HD
ENDROOT
BRANCH   1  10
ATOM     10  CD  ARG A   1     -20.529  16.245  33.670  0.00  0.00    +0.174 C 
BRANCH  10  11
ATOM     11  CG  ARG A   1     -20.482  17.750  33.865  0.00  0.00    +0.045 C 
BRANCH  11  12
ATOM     12  CB  ARG A   1     -21.031  18.462  32.663  0.00  0.00    +0.029 C 
BRANCH  12  13
ATOM     13  CA  ARG A   1     -21.203  19.936  32.999  0.00  0.00    +0.133 C 
BRANCH  13  14
ATOM     14  N   ARG A   1     -21.800  20.107  34.343  0.00  0.00    -0.239 NA
ATOM     15  H   ARG A   1     -22.036  19.284  34.933  0.00  0.00    +0.142 HD
ENDBRANCH  13  14
BRANCH  13  16
ATOM     16  C   ARG A   1     -22.057  20.530  31.898  0.00  0.00    +0.224 C 
ATOM     17  O   ARG A   1     -23.261  20.299  31.862  0.00  0.00    -0.287 OA
ENDBRANCH  13  16
ENDBRANCH  12  13
ENDBRANCH  11  12
ENDBRANCH  10  11
ENDBRANCH   1  10
TORSDOF 6
REMARK  Name = ../refined-set-2016/1qbs/1qbs_pocket.pdb
REMARK  205 active torsions:
REMARK  status: ('A' for Active; 'I' for Inactive)
REMARK    1  A    between atoms: _1  and  _3
REMARK    2  A    between atoms: _3  and  _4
REMARK    3  A    between atoms: _3  and  _6
REMARK    4  A    between atoms: _6  and  _7
REMARK    5  A    between atoms: _7  and  _8
REMARK    6  A    between atoms: _8  and  _9
REMARK    7  A    between atoms: _18  and  _20
REMARK    8  A    between atoms: _20  and  _21
REMARK    9  A    between atoms: _20  and  _23
REMARK   10  A    between atoms: _23  and  _24
REMARK   11  A    between atoms: _27  and  _29
REMARK   12  A    between atoms: _29  and  _30
REMARK   13  A    between atoms: _29  and  _32
REMARK   14  A    between atoms: _32  and  _33
REMARK   15  A    between atoms: _36  and  _38
REMARK   16  A    between atoms: _38  and  _39
REMARK   17  A    between atoms: _38  and  _41
REMARK   18  A    between atoms: _41  and  _42
REMARK   19  A    between atoms: _45  and  _47
REMARK   20  A    between atoms: _47  and  _48
REMARK   21  A    between atoms: _47  and  _50
REMARK   22  A    between atoms: _50  and  _51
REMARK   23  A    between atoms: _54  and  _56
REMARK   24  A    between atoms: _56  and  _57
REMARK   25  A    between atoms: _59  and  _61
REMARK   26  A    between atoms: _61  and  _62
REMARK   27  A    between atoms: _65  and  _67
REMARK   28  A    between atoms: _67  and  _68
REMARK   29  A    between atoms: _67  and  _70
REMARK   30  A    between atoms: _70  and  _71
REMARK   31  A    between atoms: _74  and  _76
REMARK   32  A    between atoms: _76  and  _77
REMARK   33  A    between atoms: _76  and  _79
REMARK   34  A    between atoms: _79  and  _80
REMARK   35  A    between atoms: _83  and  _85
REMARK   36  A    between atoms: _85  and  _86
REMARK   37  A    between atoms: _85  and  _88
REMARK   38  A    between atoms: _88  and  _89
REMARK   39  A    between atoms: _92  and  _94
REMARK   40  A    between atoms: _94  and  _95
REMARK   41  A    between atoms: _94  and  _97
REMARK   42  A    between atoms: _100  and  _102
REMARK   43  A    between atoms: _102  and  _103
REMARK   44  A    between atoms: _102  and  _105
REMARK   45  A    between atoms: _106  and  _107
REMARK   46  A    between atoms: _107  and  _108
REMARK   47  A    between atoms: _108  and  _109
REMARK   48  A    between atoms: _113  and  _115
REMARK   49  A    between atoms: _115  and  _116
REMARK   50  A    between atoms: _115  and  _118
REMARK   51  A    between atoms: _118  and  _119
REMARK   52  A    between atoms: _122  and  _124
REMARK   53  A    between atoms: _124  and  _125
REMARK   54  A    between atoms: _127  and  _129
REMARK   55  A    between atoms: _129  and  _130
REMARK   56  A    between atoms: _132  and  _134
REMARK   57  A    between atoms: _134  and  _135
REMARK   58  A    between atoms: _134  and  _137
REMARK   59  A    between atoms: _137  and  _138
REMARK   60  A    between atoms: _141  and  _143
REMARK   61  A    between atoms: _143  and  _144
REMARK   62  A    between atoms: _146  and  _148
REMARK   63  A    between atoms: _148  and  _149
REMARK   64  A    between atoms: _151  and  _153
REMARK   65  A    between atoms: _153  and  _154
REMARK   66  A    between atoms: _153  and  _156
REMARK   67  A    between atoms: _156  and  _157
REMARK   68  A    between atoms: _160  and  _162
REMARK   69  A    between atoms: _162  and  _163
REMARK   70  A    between atoms: _162  and  _165
REMARK   71  A    between atoms: _168  and  _170
REMARK   72  A    between atoms: _170  and  _171
REMARK   73  A    between atoms: _170  and  _173
REMARK   74  A    between atoms: _173  and  _174
REMARK   75  A    between atoms: _178  and  _179
REMARK   76  A    between atoms: _184  and  _186
REMARK   77  A    between atoms: _186  and  _187
REMARK   78  A    between atoms: _186  and  _189
REMARK   79  A    between atoms: _189  and  _190
REMARK   80  A    between atoms: _194  and  _195
REMARK   81  A    between atoms: _200  and  _202
REMARK   82  A    between atoms: _202  and  _203
REMARK   83  A    between atoms: _202  and  _205
REMARK   84  A    between atoms: _208  and  _210
REMARK   85  A    between atoms: _210  and  _211
REMARK   86  A    between atoms: _210  and  _213
REMARK   87  A    between atoms: _213  and  _214
REMARK   88  A    between atoms: _219  and  _221
REMARK   89  A    between atoms: _221  and  _222
REMARK   90  A    between atoms: _221  and  _224
REMARK   91  A    between atoms: _224  and  _225
REMARK   92  A    between atoms: _228  and  _230
REMARK   93  A    between atoms: _230  and  _231
REMARK   94  A    between atoms: _230  and  _233
REMARK   95  A    between atoms: _233  and  _234
REMARK   96  A    between atoms: _237  and  _239
REMARK   97  A    between atoms: _239  and  _240
REMARK   98  A    between atoms: _242  and  _244
REMARK   99  A    between atoms: _244  and  _245
REMARK  100  A    between atoms: _244  and  _247
REMARK  101  A    between atoms: _247  and  _248
REMARK  102  A    between atoms: _248  and  _249
REMARK  103  A    between atoms: _249  and  _250
REMARK  104  A    between atoms: _259  and  _261
REMARK  105  A    between atoms: _261  and  _262
REMARK  106  A    between atoms: _261  and  _264
REMARK  107  A    between atoms: _264  and  _265
REMARK  108  A    between atoms: _270  and  _272
REMARK  109  A    between atoms: _272  and  _273
REMARK  110  A    between atoms: _272  and  _275
REMARK  111  A    between atoms: _275  and  _276
REMARK  112  A    between atoms: _276  and  _277
REMARK  113  A    between atoms: _277  and  _278
REMARK  114  A    between atoms: _287  and  _289
REMARK  115  A    between atoms: _289  and  _290
REMARK  116  A    between atoms: _289  and  _292
REMARK  117  A    between atoms: _292  and  _293
REMARK  118  A    between atoms: _296  and  _298
REMARK  119  A    between atoms: _298  and  _299
REMARK  120  A    between atoms: _298  and  _301
REMARK  121  A    between atoms: _301  and  _302
REMARK  122  A    between atoms: _305  and  _307
REMARK  123  A    between atoms: _307  and  _308
REMARK  124  A    between atoms: _307  and  _310
REMARK  125  A    between atoms: _310  and  _311
REMARK  126  A    between atoms: _314  and  _316
REMARK  127  A    between atoms: _316  and  _317
REMARK  128  A    between atoms: _316  and  _319
REMARK  129  A    between atoms: _319  and  _320
REMARK  130  A    between atoms: _323  and  _325
REMARK  131  A    between atoms: _325  and  _326
REMARK  132  A    between atoms: _328  and  _330
REMARK  133  A    between atoms: _330  and  _331
REMARK  134  A    between atoms: _334  and  _336
REMARK  135  A    between atoms: _336  and  _337
REMARK  136  A    between atoms: _336  and  _339
REMARK  137  A    between atoms: _339  and  _340
REMARK  138  A    between atoms: _343  and  _345
REMARK  139  A    between atoms: _345  and  _346
REMARK  140  A    between atoms: _345  and  _348
REMARK  141  A    between atoms: _348  and  _349
REMARK  142  A    between atoms: _352  and  _354
REMARK  143  A    between atoms: _354  and  _355
REMARK  144  A    between atoms: _354  and  _357
REMARK  145  A    between atoms: _357  and  _358
REMARK  146  A    between atoms: _361  and  _363
REMARK  147  A    between atoms: _363  and  _364
REMARK  148  A    between atoms: _363  and  _366
REMARK  149  A    between atoms: _369  and  _371
REMARK  150  A    between atoms: _371  and  _372
REMARK  151  A    between atoms: _371  and  _374
REMARK  152  A    between atoms: _374  and  _375
REMARK  153  A    between atoms: _378  and  _380
REMARK  154  A    between atoms: _380  and  _381
REMARK  155  A    between atoms: _383  and  _385
REMARK  156  A    between atoms: _385  and  _386
REMARK  157  A    between atoms: _388  and  _390
REMARK  158  A    between atoms: _390  and  _391
REMARK  159  A    between atoms: _390  and  _393
REMARK  160  A    between atoms: _393  and  _394
REMARK  161  A    between atoms: _397  and  _399
REMARK  162  A    between atoms: _399  and  _400
REMARK  163  A    between atoms: _402  and  _404
REMARK  164  A    between atoms: _404  and  _405
REMARK  165  A    between atoms: _407  and  _409
REMARK  166  A    between atoms: _409  and  _410
REMARK  167  A    between atoms: _409  and  _412
REMARK  168  A    between atoms: _412  and  _413
REMARK  169  A    between atoms: _416  and  _418
REMARK  170  A    between atoms: _418  and  _419
REMARK  171  A    between atoms: _418  and  _421
REMARK  172  A    between atoms: _421  and  _422
REMARK  173  A    between atoms: _426  and  _427
REMARK  174  A    between atoms: _432  and  _434
REMARK  175  A    between atoms: _434  and  _435
REMARK  176  A    between atoms: _434  and  _437
REMARK  177  A    between atoms: _437  and  _438
REMARK  178  A    between atoms: _442  and  _443
REMARK  179  A    between atoms: _448  and  _450
REMARK  180  A    between atoms: _450  and  _451
REMARK  181  A    between atoms: _450  and  _453
REMARK  182  A    between atoms: _456  and  _458
REMARK  183  A    between atoms: _458  and  _459
REMARK  184  A    between atoms: _458  and  _461
REMARK  185  A    between atoms: _461  and  _462
REMARK  186  A    between atoms: _467  and  _469
REMARK  187  A    between atoms: _469  and  _470
REMARK  188  A    between atoms: _469  and  _472
REMARK  189  A    between atoms: _472  and  _473
REMARK  190  A    between atoms: _476  and  _478
REMARK  191  A    between atoms: _478  and  _479
REMARK  192  A    between atoms: _478  and  _481
REMARK  193  A    between atoms: _481  and  _482
REMARK  194  A    between atoms: _485  and  _487
REMARK  195  A    between atoms: _487  and  _488
REMARK  196  A    between atoms: _490  and  _492
REMARK  197  A    between atoms: _492  and  _493
REMARK  198  A    between atoms: _492  and  _495
REMARK  199  A    between atoms: _495  and  _496
REMARK  200  A    between atoms: _496  and  _497
REMARK  201  A    between atoms: _497  and  _498
REMARK  202  A    between atoms: _507  and  _509
REMARK  203  A    between atoms: _509  and  _510
REMARK  204  A    between atoms: _509  and  _512
REMARK  205  A    between atoms: _512  and  _513
REMARK                            x       y       z     vdW  Elec       q    Type
REMARK                         _______ _______ _______ _____ _____    ______ ____
ROOT
ATOM      1  C   GLY A   5      -9.489  22.024  24.796  0.00  0.00    +0.243 C 
ATOM      2  O   GLY A   5      -8.356  21.670  24.575  0.00  0.00    -0.273 OA
ATOM      3  N   ALA A   6     -10.492  21.682  23.992  0.00  0.00    -0.297 N 
ATOM      4  H   ALA A   6     -11.419  22.139  24.112  0.00  0.00    +0.150 HD
ENDROOT
BRANCH   3   5
ATOM      5  CA  ALA A   6     -10.320  20.679  22.944  0.00  0.00    +0.149 C 
ATOM      6  CB  ALA A   6     -11.523  19.760  22.862  0.00  0.00    +0.031 C 
BRANCH   5   7
ATOM      7  C   ALA A   6     -10.354  21.373  21.641  0.00  0.00    +0.241 C 
ATOM      8  O   ALA A   6     -11.265  22.134  21.343  0.00  0.00    -0.273 OA
ATOM      9  N   ASP A   7      -9.321  21.132  20.863  0.00  0.00    -0.297 N 
ATOM     10  H   ASP A   7      -8.600  20.428  21.118  0.00  0.00    +0.150 HD
BRANCH   9  11
ATOM     11  CA  ASP A   7      -9.235  21.908  19.613  0.00  0.00    +0.160 C 
BRANCH  11  12
ATOM     12  C   ASP A   7     -10.232  21.516  18.577  0.00  0.00    +0.241 C 
ATOM     13  N   ASP A   8     -10.583  20.241  18.637  0.00  0.00    -0.297 N 
ATOM     14  H   ASP A   8     -10.282  19.702  19.474  0.00  0.00    +0.150 HD
ATOM     15  O   ASP A   7     -10.648  22.343  17.786  0.00  0.00    -0.273 OA
BRANCH  13  16
ATOM     16  CA  ASP A   8     -11.357  19.530  17.627  0.00  0.00    +0.160 C 
BRANCH  16  17
ATOM     17  C   ASP A   8     -12.509  18.776  18.305  0.00  0.00    +0.241 C 
ATOM     18  O   ASP A   8     -12.545  18.589  19.516  0.00  0.00    -0.273 OA
ATOM     19  N   THR A   9     -13.444  18.329  17.484  0.00  0.00    -0.295 N 
ATOM     20  H   THR A   9     -13.352  18.514  16.465  0.00  0.00    +0.150 HD
BRANCH  19  21
ATOM     21  CA  THR A   9     -14.606  17.581  17.970  0.00  0.00    +0.176 C 
BRANCH  21  22
ATOM     22  C   THR A   9     -14.328  16.089  17.764  0.00  0.00    +0.243 C 
ATOM     23  N   VAL A  10     -14.595  15.342  18.811  0.00  0.00    -0.298 N 
ATOM     24  H   VAL A  10     -14.990  15.802  19.656  0.00  0.00    +0.150 HD
ATOM     25  O   THR A   9     -13.847  15.659  16.716  0.00  0.00    -0.273 OA
BRANCH  23  26
ATOM     26  CA  VAL A  10     -14.368  13.906  18.851  0.00  0.00    +0.137 C 
BRANCH  26  27
ATOM     27  CB  VAL A  10     -13.039  13.573  19.565  0.00  0.00    +0.026 C 
ATOM     28  CG2 VAL A  10     -12.765  14.509  20.716  0.00  0.00    +0.002 C 
ATOM     29  CG1 VAL A  10     -12.966  12.115  20.046  0.00  0.00    +0.002 C 
ENDBRANCH  26  27
BRANCH  26  30
ATOM     30  C   VAL A  10     -15.566  13.221  19.535  0.00  0.00    +0.227 C 
ATOM     31  O   VAL A  10     -15.989  13.574  20.634  0.00  0.00    -0.286 OA
ENDBRANCH  26  30
ENDBRANCH  23  26
ENDBRANCH  21  22
BRANCH  21  32
ATOM     32  CB  THR A   9     -15.840  18.101  17.187  0.00  0.00    +0.137 C 
ATOM     33  CG2 THR A   9     -17.179  17.345  17.443  0.00  0.00    +0.034 C 
BRANCH  32  34
ATOM     34  OG1 THR A   9     -15.970  19.491  17.516  0.00  0.00    -0.382 OA
ATOM     35  HG1 THR A   9     -15.148  19.971  17.244  0.00  0.00    +0.210 HD
ENDBRANCH  32  34
ENDBRANCH  21  32
ENDBRANCH  19  21
ENDBRANCH  16  17
BRANCH  16  36
ATOM     36  CB  ASP A   8     -10.484  18.452  16.985  0.00  0.00    +0.143 C 
BRANCH  36  37
ATOM     37  CG  ASP A   8      -9.360  18.945  16.100  0.00  0.00    +0.367 C 
ATOM     38  OD2 ASP A   8      -8.306  18.294  16.119  0.00  0.00    -0.246 OA
ATOM     39  OD1 ASP A   8      -9.534  19.938  15.385  0.00  0.00    -0.246 OA
ENDBRANCH  36  37
ENDBRANCH  16  36
ENDBRANCH  13  16
ENDBRANCH  11  12
BRANCH  11  40
ATOM     40  CB  ASP A   7      -7.874  21.798  18.938  0.00  0.00    +0.143 C 
BRANCH  40  41
ATOM     41  CG  ASP A   7      -6.711  22.148  19.849  0.00  0.00    +0.367 C 
ATOM     42  OD2 ASP A   7      -6.745  23.101  20.659  0.00  0.00    -0.246 OA
ATOM     43  OD1 ASP A   7      -5.736  21.413  19.718  0.00  0.00    -0.246 OA
ENDBRANCH  40  41
ENDBRANCH  11  40
ENDBRANCH   9  11
ENDBRANCH   5   7
ENDBRANCH   3   5
BRANCH   1  44
ATOM     44  CA  GLY A   5      -9.835  22.794  26.023  0.00  0.00    +0.176 C 
BRANCH  44  46
ATOM     45  C   THR A   4     -11.516  24.373  25.349  0.00  0.00    +0.243 C 
ATOM     46  N   GLY A   5     -11.216  23.257  26.014  0.00  0.00    -0.295 N 
ATOM     47  H   GLY A   5     -11.955  22.726  26.518  0.00  0.00    +0.150 HD
ATOM     48  O   THR A   4     -10.656  24.977  24.729  0.00  0.00    -0.273 OA
BRANCH  45  49
ATOM     49  CA  THR A   4     -12.985  24.822  25.416  0.00  0.00    +0.176 C 
BRANCH  49  51
ATOM     50  C   ASP A   3     -14.235  22.809  25.125  0.00  0.00    +0.241 C 
ATOM     51  N   THR A   4     -13.953  23.849  25.915  0.00  0.00    -0.295 N 
ATOM     52  H   THR A   4     -14.404  23.961  26.846  0.00  0.00    +0.150 HD
ATOM     53  O   ASP A   3     -13.702  22.685  24.037  0.00  0.00    -0.273 OA
BRANCH  50  54
ATOM     54  CA  ASP A   3     -15.221  21.765  25.673  0.00  0.00    +0.160 C 
BRANCH  54  57
ATOM     55  C   LEU A   2     -17.578  21.929  25.882  0.00  0.00    +0.241 C 
ATOM     56  O   LEU A   2     -17.457  22.099  27.098  0.00  0.00    -0.273 OA
ATOM     57  N   ASP A   3     -16.535  21.855  25.071  0.00  0.00    -0.297 N 
ATOM     58  H   ASP A   3     -16.655  21.861  24.038  0.00  0.00    +0.150 HD
BRANCH  55  59
ATOM     59  CA  LEU A   2     -18.940  21.782  25.205  0.00  0.00    +0.149 C 
BRANCH  59  61
ATOM     60  C   LEU A   1     -19.306  19.381  25.299  0.00  0.00    +0.238 C 
ATOM     61  N   LEU A   2     -19.609  20.602  25.749  0.00  0.00    -0.297 N 
ATOM     62  H   LEU A   2     -20.327  20.714  26.493  0.00  0.00    +0.150 HD
ATOM     63  O   LEU A   1     -18.628  19.150  24.299  0.00  0.00    -0.274 OA
BRANCH  60  64
ATOM     64  CA  LEU A   1     -19.868  18.257  26.139  0.00  0.00    +0.145 C 
BRANCH  64  65
ATOM     65  N   LEU A   1     -20.436  17.333  25.210  0.00  0.00    -0.238 NA
ATOM     66  H   LEU A   1     -19.814  16.624  24.773  0.00  0.00    +0.142 HD
ENDBRANCH  64  65
BRANCH  64  67
ATOM     67  CB  LEU A   1     -18.679  17.556  26.733  0.00  0.00    +0.026 C 
BRANCH  67  68
ATOM     68  CG  LEU A   1     -18.344  17.511  28.213  0.00  0.00    +0.002 C 
ATOM     69  CD2 LEU A   1     -18.940  18.591  29.086  0.00  0.00    +0.000 C 
ATOM     70  CD1 LEU A   1     -16.819  17.337  28.307  0.00  0.00    +0.000 C 
ENDBRANCH  67  68
ENDBRANCH  64  67
ENDBRANCH  60  64
ENDBRANCH  59  61
BRANCH  59  71
ATOM     71  CB  LEU A   2     -19.737  23.009  25.616  0.00  0.00    +0.029 C 
BRANCH  71  72
ATOM     72  CG  LEU A   2     -20.836  23.567  24.743  0.00  0.00    +0.002 C 
ATOM     73  CD2 LEU A   2     -22.018  23.864  25.653  0.00  0.00    +0.000 C 
ATOM     74  CD1 LEU A   2     -21.162  22.725  23.518  0.00  0.00    +0.000 C 
ENDBRANCH  71  72
ENDBRANCH  59  71
ENDBRANCH  55  59
ENDBRANCH  54  57
BRANCH  54  75
ATOM     75  CB  ASP A   3     -14.844  20.332  25.365  0.00  0.00    +0.143 C 
BRANCH  75  76
ATOM     76  CG  ASP A   3     -13.610  19.907  26.035  0.00  0.00    +0.367 C 
ATOM     77  OD2 ASP A   3     -12.817  20.763  26.395  0.00  0.00    -0.246 OA
ATOM     78  OD1 ASP A   3     -13.445  18.714  26.203  0.00  0.00    -0.246 OA
ENDBRANCH  75  76
ENDBRANCH  54  75
ENDBRANCH  50  54
ENDBRANCH  49  51
BRANCH  49  79
ATOM     79  CB  THR A   4     -13.173  26.132  26.213  0.00  0.00    +0.137 C 
ATOM     80  CG2 THR A   4     -14.593  26.694  26.084  0.00  0.00    +0.034 C 
BRANCH  79  81
ATOM     81  OG1 THR A   4     -12.990  25.912  27.593  0.00  0.00    -0.382 OA
ATOM     82  HG1 THR A   4     -12.075  25.570  27.753  0.00  0.00    +0.210 HD
ENDBRANCH  79  81
ENDBRANCH  49  79
ENDBRANCH  45  49
ENDBRANCH  44  46
ENDBRANCH   1  44
TORSDOF 35
REMARK  Name = ../refined-set-2016/1qbs/1qbs_pocket.pdb
REMARK  205 active torsions:
REMARK  status: ('A' for Active; 'I' for Inactive)
REMARK    1  A    between atoms: _1  and  _3
REMARK    2  A    between atoms: _3  and  _4
REMARK    3  A    between atoms: _3  and  _6
REMARK    4  A    between atoms: _6  and  _7
REMARK    5  A    between atoms: _7  and  _8
REMARK    6  A    between atoms: _8  and  _9
REMARK    7  A    between atoms: _18  and  _20
REMARK    8  A    between atoms: _20  and  _21
REMARK    9  A    between atoms: _20  and  _23
REMARK   10  A    between atoms: _23  and  _24
REMARK   11  A    between atoms: _27  and  _29
REMARK   12  A    between atoms: _29  and  _30
REMARK   13  A    between atoms: _29  and  _32
REMARK   14  A    between atoms: _32  and  _33
REMARK   15  A    between atoms: _36  and  _38
REMARK   16  A    between atoms: _38  and  _39
REMARK   17  A    between atoms: _38  and  _41
REMARK   18  A    between atoms: _41  and  _42
REMARK   19  A    between atoms: _45  and  _47
REMARK   20  A    between atoms: _47  and  _48
REMARK   21  A    between atoms: _47  and  _50
REMARK   22  A    between atoms: _50  and  _51
REMARK   23  A    between atoms: _54  and  _56
REMARK   24  A    between atoms: _56  and  _57
REMARK   25  A    between atoms: _59  and  _61
REMARK   26  A    between atoms: _61  and  _62
REMARK   27  A    between atoms: _65  and  _67
REMARK   28  A    between atoms: _67  and  _68
REMARK   29  A    between atoms: _67  and  _70
REMARK   30  A    between atoms: _70  and  _71
REMARK   31  A    between atoms: _74  and  _76
REMARK   32  A    between atoms: _76  and  _77
REMARK   33  A    between atoms: _76  and  _79
REMARK   34  A    between atoms: _79  and  _80
REMARK   35  A    between atoms: _83  and  _85
REMARK   36  A    between atoms: _85  and  _86
REMARK   37  A    between atoms: _85  and  _88
REMARK   38  A    between atoms: _88  and  _89
REMARK   39  A    between atoms: _92  and  _94
REMARK   40  A    between atoms: _94  and  _95
REMARK   41  A    between atoms: _94  and  _97
REMARK   42  A    between atoms: _100  and  _102
REMARK   43  A    between atoms: _102  and  _103
REMARK   44  A    between atoms: _102  and  _105
REMARK   45  A    between atoms: _106  and  _107
REMARK   46  A    between atoms: _107  and  _108
REMARK   47  A    between atoms: _108  and  _109
REMARK   48  A    between atoms: _113  and  _115
REMARK   49  A    between atoms: _115  and  _116
REMARK   50  A    between atoms: _115  and  _118
REMARK   51  A    between atoms: _118  and  _119
REMARK   52  A    between atoms: _122  and  _124
REMARK   53  A    between atoms: _124  and  _125
REMARK   54  A    between atoms: _127  and  _129
REMARK   55  A    between atoms: _129  and  _130
REMARK   56  A    between atoms: _132  and  _134
REMARK   57  A    between atoms: _134  and  _135
REMARK   58  A    between atoms: _134  and  _137
REMARK   59  A    between atoms: _137  and  _138
REMARK   60  A    between atoms: _141  and  _143
REMARK   61  A    between atoms: _143  and  _144
REMARK   62  A    between atoms: _146  and  _148
REMARK   63  A    between atoms: _148  and  _149
REMARK   64  A    between atoms: _151  and  _153
REMARK   65  A    between atoms: _153  and  _154
REMARK   66  A    between atoms: _153  and  _156
REMARK   67  A    between atoms: _156  and  _157
REMARK   68  A    between atoms: _160  and  _162
REMARK   69  A    between atoms: _162  and  _163
REMARK   70  A    between atoms: _162  and  _165
REMARK   71  A    between atoms: _168  and  _170
REMARK   72  A    between atoms: _170  and  _171
REMARK   73  A    between atoms: _170  and  _173
REMARK   74  A    between atoms: _173  and  _174
REMARK   75  A    between atoms: _178  and  _179
REMARK   76  A    between atoms: _184  and  _186
REMARK   77  A    between atoms: _186  and  _187
REMARK   78  A    between atoms: _186  and  _189
REMARK   79  A    between atoms: _189  and  _190
REMARK   80  A    between atoms: _194  and  _195
REMARK   81  A    between atoms: _200  and  _202
REMARK   82  A    between atoms: _202  and  _203
REMARK   83  A    between atoms: _202  and  _205
REMARK   84  A    between atoms: _208  and  _210
REMARK   85  A    between atoms: _210  and  _211
REMARK   86  A    between atoms: _210  and  _213
REMARK   87  A    between atoms: _213  and  _214
REMARK   88  A    between atoms: _219  and  _221
REMARK   89  A    between atoms: _221  and  _222
REMARK   90  A    between atoms: _221  and  _224
REMARK   91  A    between atoms: _224  and  _225
REMARK   92  A    between atoms: _228  and  _230
REMARK   93  A    between atoms: _230  and  _231
REMARK   94  A    between atoms: _230  and  _233
REMARK   95  A    between atoms: _233  and  _234
REMARK   96  A    between atoms: _237  and  _239
REMARK   97  A    between atoms: _239  and  _240
REMARK   98  A    between atoms: _242  and  _244
REMARK   99  A    between atoms: _244  and  _245
REMARK  100  A    between atoms: _244  and  _247
REMARK  101  A    between atoms: _247  and  _248
REMARK  102  A    between atoms: _248  and  _249
REMARK  103  A    between atoms: _249  and  _250
REMARK  104  A    between atoms: _259  and  _261
REMARK  105  A    between atoms: _261  and  _262
REMARK  106  A    between atoms: _261  and  _264
REMARK  107  A    between atoms: _264  and  _265
REMARK  108  A    between atoms: _270  and  _272
REMARK  109  A    between atoms: _272  and  _273
REMARK  110  A    between atoms: _272  and  _275
REMARK  111  A    between atoms: _275  and  _276
REMARK  112  A    between atoms: _276  and  _277
REMARK  113  A    between atoms: _277  and  _278
REMARK  114  A    between atoms: _287  and  _289
REMARK  115  A    between atoms: _289  and  _290
REMARK  116  A    between atoms: _289  and  _292
REMARK  117  A    between atoms: _292  and  _293
REMARK  118  A    between atoms: _296  and  _298
REMARK  119  A    between atoms: _298  and  _299
REMARK  120  A    between atoms: _298  and  _301
REMARK  121  A    between atoms: _301  and  _302
REMARK  122  A    between atoms: _305  and  _307
REMARK  123  A    between atoms: _307  and  _308
REMARK  124  A    between atoms: _307  and  _310
REMARK  125  A    between atoms: _310  and  _311
REMARK  126  A    between atoms: _314  and  _316
REMARK  127  A    between atoms: _316  and  _317
REMARK  128  A    between atoms: _316  and  _319
REMARK  129  A    between atoms: _319  and  _320
REMARK  130  A    between atoms: _323  and  _325
REMARK  131  A    between atoms: _325  and  _326
REMARK  132  A    between atoms: _328  and  _330
REMARK  133  A    between atoms: _330  and  _331
REMARK  134  A    between atoms: _334  and  _336
REMARK  135  A    between atoms: _336  and  _337
REMARK  136  A    between atoms: _336  and  _339
REMARK  137  A    between atoms: _339  and  _340
REMARK  138  A    between atoms: _343  and  _345
REMARK  139  A    between atoms: _345  and  _346
REMARK  140  A    between atoms: _345  and  _348
REMARK  141  A    between atoms: _348  and  _349
REMARK  142  A    between atoms: _352  and  _354
REMARK  143  A    between atoms: _354  and  _355
REMARK  144  A    between atoms: _354  and  _357
REMARK  145  A    between atoms: _357  and  _358
REMARK  146  A    between atoms: _361  and  _363
REMARK  147  A    between atoms: _363  and  _364
REMARK  148  A    between atoms: _363  and  _366
REMARK  149  A    between atoms: _369  and  _371
REMARK  150  A    between atoms: _371  and  _372
REMARK  151  A    between atoms: _371  and  _374
REMARK  152  A    between atoms: _374  and  _375
REMARK  153  A    between atoms: _378  and  _380
REMARK  154  A    between atoms: _380  and  _381
REMARK  155  A    between atoms: _383  and  _385
REMARK  156  A    between atoms: _385  and  _386
REMARK  157  A    between atoms: _388  and  _390
REMARK  158  A    between atoms: _390  and  _391
REMARK  159  A    between atoms: _390  and  _393
REMARK  160  A    between atoms: _393  and  _394
REMARK  161  A    between atoms: _397  and  _399
REMARK  162  A    between atoms: _399  and  _400
REMARK  163  A    between atoms: _402  and  _404
REMARK  164  A    between atoms: _404  and  _405
REMARK  165  A    between atoms: _407  and  _409
REMARK  166  A    between atoms: _409  and  _410
REMARK  167  A    between atoms: _409  and  _412
REMARK  168  A    between atoms: _412  and  _413
REMARK  169  A    between atoms: _416  and  _418
REMARK  170  A    between atoms: _418  and  _419
REMARK  171  A    between atoms: _418  and  _421
REMARK  172  A    between atoms: _421  and  _422
REMARK  173  A    between atoms: _426  and  _427
REMARK  174  A    between atoms: _432  and  _434
REMARK  175  A    between atoms: _434  and  _435
REMARK  176  A    between atoms: _434  and  _437
REMARK  177  A    between atoms: _437  and  _438
REMARK  178  A    between atoms: _442  and  _443
REMARK  179  A    between atoms: _448  and  _450
REMARK  180  A    between atoms: _450  and  _451
REMARK  181  A    between atoms: _450  and  _453
REMARK  182  A    between atoms: _456  and  _458
REMARK  183  A    between atoms: _458  and  _459
REMARK  184  A    between atoms: _458  and  _461
REMARK  185  A    between atoms: _461  and  _462
REMARK  186  A    between atoms: _467  and  _469
REMARK  187  A    between atoms: _469  and  _470
REMARK  188  A    between atoms: _469  and  _472
REMARK  189  A    between atoms: _472  and  _473
REMARK  190  A    between atoms: _476  and  _478
REMARK  191  A    between atoms: _478  and  _479
REMARK  192  A    between atoms: _478  and  _481
REMARK  193  A    between atoms: _481  and  _482
REMARK  194  A    between atoms: _485  and  _487
REMARK  195  A    between atoms: _487  and  _488
REMARK  196  A    between atoms: _490  and  _492
REMARK  197  A    between atoms: _492  and  _493
REMARK  198  A    between atoms: _492  and  _495
REMARK  199  A    between atoms: _495  and  _496
REMARK  200  A    between atoms: _496  and  _497
REMARK  201  A    between atoms: _497  and  _498
REMARK  202  A    between atoms: _507  and  _509
REMARK  203  A    between atoms: _509  and  _510
REMARK  204  A    between atoms: _509  and  _512
REMARK  205  A    between atoms: _512  and  _513
REMARK                            x       y       z     vdW  Elec       q    Type
REMARK                         _______ _______ _______ _____ _____    ______ ____
ROOT
ATOM      1  C   GLY A   3      -4.241  13.237  26.986  0.00  0.00    +0.243 C 
ATOM      2  N   ILE A   4      -4.992  13.271  28.075  0.00  0.00    -0.297 N 
ATOM      3  H   ILE A   4      -5.946  13.683  28.042  0.00  0.00    +0.150 HD
ATOM      4  O   GLY A   3      -3.061  12.940  27.008  0.00  0.00    -0.273 OA
ENDROOT
BRANCH   2   5
ATOM      5  CA  ILE A   4      -4.466  12.722  29.328  0.00  0.00    +0.149 C 
BRANCH   5   6
ATOM      6  C   ILE A   4      -4.436  11.216  29.235  0.00  0.00    +0.241 C 
ATOM      7  N   GLY A   5      -3.449  10.556  29.786  0.00  0.00    -0.295 N 
ATOM      8  H   GLY A   5      -2.703  11.004  30.356  0.00  0.00    +0.150 HD
ATOM      9  O   ILE A   4      -5.302  10.627  28.650  0.00  0.00    -0.273 OA
BRANCH   7  10
ATOM     10  CA  GLY A   5      -3.509   9.122  29.514  0.00  0.00    +0.176 C 
BRANCH  10  11
ATOM     11  C   GLY A   5      -2.736   8.739  28.268  0.00  0.00    +0.243 C 
ATOM     12  O   GLY A   5      -1.900   7.851  28.278  0.00  0.00    -0.273 OA
ATOM     13  N   GLY A   6      -2.988   9.461  27.200  0.00  0.00    -0.296 N 
ATOM     14  H   GLY A   6      -3.732  10.187  27.216  0.00  0.00    +0.150 HD
BRANCH  13  15
ATOM     15  CA  GLY A   6      -2.215   9.230  26.004  0.00  0.00    +0.163 C 
BRANCH  15  16
ATOM     16  C   GLY A   6      -3.082   9.268  24.765  0.00  0.00    +0.229 C 
ATOM     17  O   GLY A   6      -3.991  10.068  24.586  0.00  0.00    -0.286 OA
ENDBRANCH  15  16
ENDBRANCH  13  15
ENDBRANCH  10  11
ENDBRANCH   7  10
ENDBRANCH   5   6
BRANCH   5  18
ATOM     18  CB  ILE A   4      -5.392  13.201  30.437  0.00  0.00    +0.027 C 
ATOM     19  CG2 ILE A   4      -5.453  12.300  31.662  0.00  0.00    +0.002 C 
BRANCH  18  20
ATOM     20  CG1 ILE A   4      -4.889  14.570  30.844  0.00  0.00    +0.002 C 
ATOM     21  CD1 ILE A   4      -5.549  15.052  32.135  0.00  0.00    +0.000 C 
ENDBRANCH  18  20
ENDBRANCH   5  18
ENDBRANCH   2   5
BRANCH   1  22
ATOM     22  CA  GLY A   3      -4.956  13.540  25.704  0.00  0.00    +0.176 C 
BRANCH  22  24
ATOM     23  C   GLY A   2      -4.120  13.409  23.469  0.00  0.00    +0.243 C 
ATOM     24  N   GLY A   3      -4.338  12.819  24.616  0.00  0.00    -0.295 N 
ATOM     25  H   GLY A   3      -4.064  11.824  24.745  0.00  0.00    +0.150 HD
ATOM     26  O   GLY A   2      -4.481  14.544  23.224  0.00  0.00    -0.273 OA
BRANCH  23  27
ATOM     27  CA  GLY A   2      -3.397  12.615  22.404  0.00  0.00    +0.176 C 
BRANCH  27  29
ATOM     28  C   ILE A   1      -4.472  11.986  20.348  0.00  0.00    +0.238 C 
ATOM     29  N   GLY A   2      -3.908  12.947  21.073  0.00  0.00    -0.296 N 
ATOM     30  H   GLY A   2      -3.831  13.916  20.702  0.00  0.00    +0.150 HD
ATOM     31  O   ILE A   1      -4.558  10.826  20.715  0.00  0.00    -0.274 OA
BRANCH  28  32
ATOM     32  CA  ILE A   1      -4.974  12.377  18.989  0.00  0.00    +0.145 C 
BRANCH  32  33
ATOM     33  CB  ILE A   1      -6.376  13.082  19.052  0.00  0.00    +0.025 C 
ATOM     34  CG2 ILE A   1      -6.691  13.912  17.812  0.00  0.00    +0.002 C 
BRANCH  33  35
ATOM     35  CG1 ILE A   1      -7.626  12.259  19.341  0.00  0.00    +0.002 C 
ATOM     36  CD1 ILE A   1      -8.795  13.196  19.629  0.00  0.00    +0.000 C 
ENDBRANCH  33  35
ENDBRANCH  32  33
BRANCH  32  37
ATOM     37  N   ILE A   1      -4.949  11.177  18.168  0.00  0.00    -0.238 NA
ATOM     38  H   ILE A   1      -5.506  10.344  18.445  0.00  0.00    +0.142 HD
ENDBRANCH  32  37
ENDBRANCH  28  32
ENDBRANCH  27  29
ENDBRANCH  23  27
ENDBRANCH  22  24
ENDBRANCH   1  22
TORSDOF 16
REMARK  Name = ../refined-set-2016/1qbs/1qbs_pocket.pdb
REMARK  205 active torsions:
REMARK  status: ('A' for Active; 'I' for Inactive)
REMARK    1  A    between atoms: _1  and  _3
REMARK    2  A    between atoms: _3  and  _4
REMARK    3  A    between atoms: _3  and  _6
REMARK    4  A    between atoms: _6  and  _7
REMARK    5  A    between atoms: _7  and  _8
REMARK    6  A    between atoms: _8  and  _9
REMARK    7  A    between atoms: _18  and  _20
REMARK    8  A    between atoms: _20  and  _21
REMARK    9  A    between atoms: _20  and  _23
REMARK   10  A    between atoms: _23  and  _24
REMARK   11  A    between atoms: _27  and  _29
REMARK   12  A    between atoms: _29  and  _30
REMARK   13  A    between atoms: _29  and  _32
REMARK   14  A    between atoms: _32  and  _33
REMARK   15  A    between atoms: _36  and  _38
REMARK   16  A    between atoms: _38  and  _39
REMARK   17  A    between atoms: _38  and  _41
REMARK   18  A    between atoms: _41  and  _42
REMARK   19  A    between atoms: _45  and  _47
REMARK   20  A    between atoms: _47  and  _48
REMARK   21  A    between atoms: _47  and  _50
REMARK   22  A    between atoms: _50  and  _51
REMARK   23  A    between atoms: _54  and  _56
REMARK   24  A    between atoms: _56  and  _57
REMARK   25  A    between atoms: _59  and  _61
REMARK   26  A    between atoms: _61  and  _62
REMARK   27  A    between atoms: _65  and  _67
REMARK   28  A    between atoms: _67  and  _68
REMARK   29  A    between atoms: _67  and  _70
REMARK   30  A    between atoms: _70  and  _71
REMARK   31  A    between atoms: _74  and  _76
REMARK   32  A    between atoms: _76  and  _77
REMARK   33  A    between atoms: _76  and  _79
REMARK   34  A    between atoms: _79  and  _80
REMARK   35  A    between atoms: _83  and  _85
REMARK   36  A    between atoms: _85  and  _86
REMARK   37  A    between atoms: _85  and  _88
REMARK   38  A    between atoms: _88  and  _89
REMARK   39  A    between atoms: _92  and  _94
REMARK   40  A    between atoms: _94  and  _95
REMARK   41  A    between atoms: _94  and  _97
REMARK   42  A    between atoms: _100  and  _102
REMARK   43  A    between atoms: _102  and  _103
REMARK   44  A    between atoms: _102  and  _105
REMARK   45  A    between atoms: _106  and  _107
REMARK   46  A    between atoms: _107  and  _108
REMARK   47  A    between atoms: _108  and  _109
REMARK   48  A    between atoms: _113  and  _115
REMARK   49  A    between atoms: _115  and  _116
REMARK   50  A    between atoms: _115  and  _118
REMARK   51  A    between atoms: _118  and  _119
REMARK   52  A    between atoms: _122  and  _124
REMARK   53  A    between atoms: _124  and  _125
REMARK   54  A    between atoms: _127  and  _129
REMARK   55  A    between atoms: _129  and  _130
REMARK   56  A    between atoms: _132  and  _134
REMARK   57  A    between atoms: _134  and  _135
REMARK   58  A    between atoms: _134  and  _137
REMARK   59  A    between atoms: _137  and  _138
REMARK   60  A    between atoms: _141  and  _143
REMARK   61  A    between atoms: _143  and  _144
REMARK   62  A    between atoms: _146  and  _148
REMARK   63  A    between atoms: _148  and  _149
REMARK   64  A    between atoms: _151  and  _153
REMARK   65  A    between atoms: _153  and  _154
REMARK   66  A    between atoms: _153  and  _156
REMARK   67  A    between atoms: _156  and  _157
REMARK   68  A    between atoms: _160  and  _162
REMARK   69  A    between atoms: _162  and  _163
REMARK   70  A    between atoms: _162  and  _165
REMARK   71  A    between atoms: _168  and  _170
REMARK   72  A    between atoms: _170  and  _171
REMARK   73  A    between atoms: _170  and  _173
REMARK   74  A    between atoms: _173  and  _174
REMARK   75  A    between atoms: _178  and  _179
REMARK   76  A    between atoms: _184  and  _186
REMARK   77  A    between atoms: _186  and  _187
REMARK   78  A    between atoms: _186  and  _189
REMARK   79  A    between atoms: _189  and  _190
REMARK   80  A    between atoms: _194  and  _195
REMARK   81  A    between atoms: _200  and  _202
REMARK   82  A    between atoms: _202  and  _203
REMARK   83  A    between atoms: _202  and  _205
REMARK   84  A    between atoms: _208  and  _210
REMARK   85  A    between atoms: _210  and  _211
REMARK   86  A    between atoms: _210  and  _213
REMARK   87  A    between atoms: _213  and  _214
REMARK   88  A    between atoms: _219  and  _221
REMARK   89  A    between atoms: _221  and  _222
REMARK   90  A    between atoms: _221  and  _224
REMARK   91  A    between atoms: _224  and  _225
REMARK   92  A    between atoms: _228  and  _230
REMARK   93  A    between atoms: _230  and  _231
REMARK   94  A    between atoms: _230  and  _233
REMARK   95  A    between atoms: _233  and  _234
REMARK   96  A    between atoms: _237  and  _239
REMARK   97  A    between atoms: _239  and  _240
REMARK   98  A    between atoms: _242  and  _244
REMARK   99  A    between atoms: _244  and  _245
REMARK  100  A    between atoms: _244  and  _247
REMARK  101  A    between atoms: _247  and  _248
REMARK  102  A    between atoms: _248  and  _249
REMARK  103  A    between atoms: _249  and  _250
REMARK  104  A    between atoms: _259  and  _261
REMARK  105  A    between atoms: _261  and  _262
REMARK  106  A    between atoms: _261  and  _264
REMARK  107  A    between atoms: _264  and  _265
REMARK  108  A    between atoms: _270  and  _272
REMARK  109  A    between atoms: _272  and  _273
REMARK  110  A    between atoms: _272  and  _275
REMARK  111  A    between atoms: _275  and  _276
REMARK  112  A    between atoms: _276  and  _277
REMARK  113  A    between atoms: _277  and  _278
REMARK  114  A    between atoms: _287  and  _289
REMARK  115  A    between atoms: _289  and  _290
REMARK  116  A    between atoms: _289  and  _292
REMARK  117  A    between atoms: _292  and  _293
REMARK  118  A    between atoms: _296  and  _298
REMARK  119  A    between atoms: _298  and  _299
REMARK  120  A    between atoms: _298  and  _301
REMARK  121  A    between atoms: _301  and  _302
REMARK  122  A    between atoms: _305  and  _307
REMARK  123  A    between atoms: _307  and  _308
REMARK  124  A    between atoms: _307  and  _310
REMARK  125  A    between atoms: _310  and  _311
REMARK  126  A    between atoms: _314  and  _316
REMARK  127  A    between atoms: _316  and  _317
REMARK  128  A    between atoms: _316  and  _319
REMARK  129  A    between atoms: _319  and  _320
REMARK  130  A    between atoms: _323  and  _325
REMARK  131  A    between atoms: _325  and  _326
REMARK  132  A    between atoms: _328  and  _330
REMARK  133  A    between atoms: _330  and  _331
REMARK  134  A    between atoms: _334  and  _336
REMARK  135  A    between atoms: _336  and  _337
REMARK  136  A    between atoms: _336  and  _339
REMARK  137  A    between atoms: _339  and  _340
REMARK  138  A    between atoms: _343  and  _345
REMARK  139  A    between atoms: _345  and  _346
REMARK  140  A    between atoms: _345  and  _348
REMARK  141  A    between atoms: _348  and  _349
REMARK  142  A    between atoms: _352  and  _354
REMARK  143  A    between atoms: _354  and  _355
REMARK  144  A    between atoms: _354  and  _357
REMARK  145  A    between atoms: _357  and  _358
REMARK  146  A    between atoms: _361  and  _363
REMARK  147  A    between atoms: _363  and  _364
REMARK  148  A    between atoms: _363  and  _366
REMARK  149  A    between atoms: _369  and  _371
REMARK  150  A    between atoms: _371  and  _372
REMARK  151  A    between atoms: _371  and  _374
REMARK  152  A    between atoms: _374  and  _375
REMARK  153  A    between atoms: _378  and  _380
REMARK  154  A    between atoms: _380  and  _381
REMARK  155  A    between atoms: _383  and  _385
REMARK  156  A    between atoms: _385  and  _386
REMARK  157  A    between atoms: _388  and  _390
REMARK  158  A    between atoms: _390  and  _391
REMARK  159  A    between atoms: _390  and  _393
REMARK  160  A    between atoms: _393  and  _394
REMARK  161  A    between atoms: _397  and  _399
REMARK  162  A    between atoms: _399  and  _400
REMARK  163  A    between atoms: _402  and  _404
REMARK  164  A    between atoms: _404  and  _405
REMARK  165  A    between atoms: _407  and  _409
REMARK  166  A    between atoms: _409  and  _410
REMARK  167  A    between atoms: _409  and  _412
REMARK  168  A    between atoms: _412  and  _413
REMARK  169  A    between atoms: _416  and  _418
REMARK  170  A    between atoms: _418  and  _419
REMARK  171  A    between atoms: _418  and  _421
REMARK  172  A    between atoms: _421  and  _422
REMARK  173  A    between atoms: _426  and  _427
REMARK  174  A    between atoms: _432  and  _434
REMARK  175  A    between atoms: _434  and  _435
REMARK  176  A    between atoms: _434  and  _437
REMARK  177  A    between atoms: _437  and  _438
REMARK  178  A    between atoms: _442  and  _443
REMARK  179  A    between atoms: _448  and  _450
REMARK  180  A    between atoms: _450  and  _451
REMARK  181  A    between atoms: _450  and  _453
REMARK  182  A    between atoms: _456  and  _458
REMARK  183  A    between atoms: _458  and  _459
REMARK  184  A    between atoms: _458  and  _461
REMARK  185  A    between atoms: _461  and  _462
REMARK  186  A    between atoms: _467  and  _469
REMARK  187  A    between atoms: _469  and  _470
REMARK  188  A    between atoms: _469  and  _472
REMARK  189  A    between atoms: _472  and  _473
REMARK  190  A    between atoms: _476  and  _478
REMARK  191  A    between atoms: _478  and  _479
REMARK  192  A    between atoms: _478  and  _481
REMARK  193  A    between atoms: _481  and  _482
REMARK  194  A    between atoms: _485  and  _487
REMARK  195  A    between atoms: _487  and  _488
REMARK  196  A    between atoms: _490  and  _492
REMARK  197  A    between atoms: _492  and  _493
REMARK  198  A    between atoms: _492  and  _495
REMARK  199  A    between atoms: _495  and  _496
REMARK  200  A    between atoms: _496  and  _497
REMARK  201  A    between atoms: _497  and  _498
REMARK  202  A    between atoms: _507  and  _509
REMARK  203  A    between atoms: _509  and  _510
REMARK  204  A    between atoms: _509  and  _512
REMARK  205  A    between atoms: _512  and  _513
REMARK                            x       y       z     vdW  Elec       q    Type
REMARK                         _______ _______ _______ _____ _____    ______ ____
ROOT
ATOM      1  CA  ILE A   1      -6.178   7.314  20.648  0.00  0.00    +0.133 C 
ENDROOT
BRANCH   1   2
ATOM      2  N   ILE A   1      -5.201   8.232  21.272  0.00  0.00    -0.239 NA
ATOM      3  H   ILE A   1      -5.180   9.236  21.003  0.00  0.00    +0.142 HD
ENDBRANCH   1   2
BRANCH   1   4
ATOM      4  CB  ILE A   1      -7.648   7.455  21.197  0.00  0.00    +0.023 C 
ATOM      5  CG2 ILE A   1      -7.699   7.219  22.699  0.00  0.00    +0.002 C 
BRANCH   4   6
ATOM      6  CG1 ILE A   1      -8.327   8.792  20.856  0.00  0.00    +0.002 C 
ATOM      7  CD1 ILE A   1      -9.723   8.852  21.468  0.00  0.00    +0.000 C 
ENDBRANCH   4   6
ENDBRANCH   1   4
BRANCH   1   8
ATOM      8  C   ILE A   1      -6.170   7.454  19.117  0.00  0.00    +0.224 C 
ATOM      9  O   ILE A   1      -5.796   8.455  18.507  0.00  0.00    -0.287 OA
ENDBRANCH   1   8
TORSDOF 4
REMARK  Name = ../refined-set-2016/1qbs/1qbs_pocket.pdb
REMARK  205 active torsions:
REMARK  status: ('A' for Active; 'I' for Inactive)
REMARK    1  A    between atoms: _1  and  _3
REMARK    2  A    between atoms: _3  and  _4
REMARK    3  A    between atoms: _3  and  _6
REMARK    4  A    between atoms: _6  and  _7
REMARK    5  A    between atoms: _7  and  _8
REMARK    6  A    between atoms: _8  and  _9
REMARK    7  A    between atoms: _18  and  _20
REMARK    8  A    between atoms: _20  and  _21
REMARK    9  A    between atoms: _20  and  _23
REMARK   10  A    between atoms: _23  and  _24
REMARK   11  A    between atoms: _27  and  _29
REMARK   12  A    between atoms: _29  and  _30
REMARK   13  A    between atoms: _29  and  _32
REMARK   14  A    between atoms: _32  and  _33
REMARK   15  A    between atoms: _36  and  _38
REMARK   16  A    between atoms: _38  and  _39
REMARK   17  A    between atoms: _38  and  _41
REMARK   18  A    between atoms: _41  and  _42
REMARK   19  A    between atoms: _45  and  _47
REMARK   20  A    between atoms: _47  and  _48
REMARK   21  A    between atoms: _47  and  _50
REMARK   22  A    between atoms: _50  and  _51
REMARK   23  A    between atoms: _54  and  _56
REMARK   24  A    between atoms: _56  and  _57
REMARK   25  A    between atoms: _59  and  _61
REMARK   26  A    between atoms: _61  and  _62
REMARK   27  A    between atoms: _65  and  _67
REMARK   28  A    between atoms: _67  and  _68
REMARK   29  A    between atoms: _67  and  _70
REMARK   30  A    between atoms: _70  and  _71
REMARK   31  A    between atoms: _74  and  _76
REMARK   32  A    between atoms: _76  and  _77
REMARK   33  A    between atoms: _76  and  _79
REMARK   34  A    between atoms: _79  and  _80
REMARK   35  A    between atoms: _83  and  _85
REMARK   36  A    between atoms: _85  and  _86
REMARK   37  A    between atoms: _85  and  _88
REMARK   38  A    between atoms: _88  and  _89
REMARK   39  A    between atoms: _92  and  _94
REMARK   40  A    between atoms: _94  and  _95
REMARK   41  A    between atoms: _94  and  _97
REMARK   42  A    between atoms: _100  and  _102
REMARK   43  A    between atoms: _102  and  _103
REMARK   44  A    between atoms: _102  and  _105
REMARK   45  A    between atoms: _106  and  _107
REMARK   46  A    between atoms: _107  and  _108
REMARK   47  A    between atoms: _108  and  _109
REMARK   48  A    between atoms: _113  and  _115
REMARK   49  A    between atoms: _115  and  _116
REMARK   50  A    between atoms: _115  and  _118
REMARK   51  A    between atoms: _118  and  _119
REMARK   52  A    between atoms: _122  and  _124
REMARK   53  A    between atoms: _124  and  _125
REMARK   54  A    between atoms: _127  and  _129
REMARK   55  A    between atoms: _129  and  _130
REMARK   56  A    between atoms: _132  and  _134
REMARK   57  A    between atoms: _134  and  _135
REMARK   58  A    between atoms: _134  and  _137
REMARK   59  A    between atoms: _137  and  _138
REMARK   60  A    between atoms: _141  and  _143
REMARK   61  A    between atoms: _143  and  _144
REMARK   62  A    between atoms: _146  and  _148
REMARK   63  A    between atoms: _148  and  _149
REMARK   64  A    between atoms: _151  and  _153
REMARK   65  A    between atoms: _153  and  _154
REMARK   66  A    between atoms: _153  and  _156
REMARK   67  A    between atoms: _156  and  _157
REMARK   68  A    between atoms: _160  and  _162
REMARK   69  A    between atoms: _162  and  _163
REMARK   70  A    between atoms: _162  and  _165
REMARK   71  A    between atoms: _168  and  _170
REMARK   72  A    between atoms: _170  and  _171
REMARK   73  A    between atoms: _170  and  _173
REMARK   74  A    between atoms: _173  and  _174
REMARK   75  A    between atoms: _178  and  _179
REMARK   76  A    between atoms: _184  and  _186
REMARK   77  A    between atoms: _186  and  _187
REMARK   78  A    between atoms: _186  and  _189
REMARK   79  A    between atoms: _189  and  _190
REMARK   80  A    between atoms: _194  and  _195
REMARK   81  A    between atoms: _200  and  _202
REMARK   82  A    between atoms: _202  and  _203
REMARK   83  A    between atoms: _202  and  _205
REMARK   84  A    between atoms: _208  and  _210
REMARK   85  A    between atoms: _210  and  _211
REMARK   86  A    between atoms: _210  and  _213
REMARK   87  A    between atoms: _213  and  _214
REMARK   88  A    between atoms: _219  and  _221
REMARK   89  A    between atoms: _221  and  _222
REMARK   90  A    between atoms: _221  and  _224
REMARK   91  A    between atoms: _224  and  _225
REMARK   92  A    between atoms: _228  and  _230
REMARK   93  A    between atoms: _230  and  _231
REMARK   94  A    between atoms: _230  and  _233
REMARK   95  A    between atoms: _233  and  _234
REMARK   96  A    between atoms: _237  and  _239
REMARK   97  A    between atoms: _239  and  _240
REMARK   98  A    between atoms: _242  and  _244
REMARK   99  A    between atoms: _244  and  _245
REMARK  100  A    between atoms: _244  and  _247
REMARK  101  A    between atoms: _247  and  _248
REMARK  102  A    between atoms: _248  and  _249
REMARK  103  A    between atoms: _249  and  _250
REMARK  104  A    between atoms: _259  and  _261
REMARK  105  A    between atoms: _261  and  _262
REMARK  106  A    between atoms: _261  and  _264
REMARK  107  A    between atoms: _264  and  _265
REMARK  108  A    between atoms: _270  and  _272
REMARK  109  A    between atoms: _272  and  _273
REMARK  110  A    between atoms: _272  and  _275
REMARK  111  A    between atoms: _275  and  _276
REMARK  112  A    between atoms: _276  and  _277
REMARK  113  A    between atoms: _277  and  _278
REMARK  114  A    between atoms: _287  and  _289
REMARK  115  A    between atoms: _289  and  _290
REMARK  116  A    between atoms: _289  and  _292
REMARK  117  A    between atoms: _292  and  _293
REMARK  118  A    between atoms: _296  and  _298
REMARK  119  A    between atoms: _298  and  _299
REMARK  120  A    between atoms: _298  and  _301
REMARK  121  A    between atoms: _301  and  _302
REMARK  122  A    between atoms: _305  and  _307
REMARK  123  A    between atoms: _307  and  _308
REMARK  124  A    between atoms: _307  and  _310
REMARK  125  A    between atoms: _310  and  _311
REMARK  126  A    between atoms: _314  and  _316
REMARK  127  A    between atoms: _316  and  _317
REMARK  128  A    between atoms: _316  and  _319
REMARK  129  A    between atoms: _319  and  _320
REMARK  130  A    between atoms: _323  and  _325
REMARK  131  A    between atoms: _325  and  _326
REMARK  132  A    between atoms: _328  and  _330
REMARK  133  A    between atoms: _330  and  _331
REMARK  134  A    between atoms: _334  and  _336
REMARK  135  A    between atoms: _336  and  _337
REMARK  136  A    between atoms: _336  and  _339
REMARK  137  A    between atoms: _339  and  _340
REMARK  138  A    between atoms: _343  and  _345
REMARK  139  A    between atoms: _345  and  _346
REMARK  140  A    between atoms: _345  and  _348
REMARK  141  A    between atoms: _348  and  _349
REMARK  142  A    between atoms: _352  and  _354
REMARK  143  A    between atoms: _354  and  _355
REMARK  144  A    between atoms: _354  and  _357
REMARK  145  A    between atoms: _357  and  _358
REMARK  146  A    between atoms: _361  and  _363
REMARK  147  A    between atoms: _363  and  _364
REMARK  148  A    between atoms: _363  and  _366
REMARK  149  A    between atoms: _369  and  _371
REMARK  150  A    between atoms: _371  and  _372
REMARK  151  A    between atoms: _371  and  _374
REMARK  152  A    between atoms: _374  and  _375
REMARK  153  A    between atoms: _378  and  _380
REMARK  154  A    between atoms: _380  and  _381
REMARK  155  A    between atoms: _383  and  _385
REMARK  156  A    between atoms: _385  and  _386
REMARK  157  A    between atoms: _388  and  _390
REMARK  158  A    between atoms: _390  and  _391
REMARK  159  A    between atoms: _390  and  _393
REMARK  160  A    between atoms: _393  and  _394
REMARK  161  A    between atoms: _397  and  _399
REMARK  162  A    between atoms: _399  and  _400
REMARK  163  A    between atoms: _402  and  _404
REMARK  164  A    between atoms: _404  and  _405
REMARK  165  A    between atoms: _407  and  _409
REMARK  166  A    between atoms: _409  and  _410
REMARK  167  A    between atoms: _409  and  _412
REMARK  168  A    between atoms: _412  and  _413
REMARK  169  A    between atoms: _416  and  _418
REMARK  170  A    between atoms: _418  and  _419
REMARK  171  A    between atoms: _418  and  _421
REMARK  172  A    between atoms: _421  and  _422
REMARK  173  A    between atoms: _426  and  _427
REMARK  174  A    between atoms: _432  and  _434
REMARK  175  A    between atoms: _434  and  _435
REMARK  176  A    between atoms: _434  and  _437
REMARK  177  A    between atoms: _437  and  _438
REMARK  178  A    between atoms: _442  and  _443
REMARK  179  A    between atoms: _448  and  _450
REMARK  180  A    between atoms: _450  and  _451
REMARK  181  A    between atoms: _450  and  _453
REMARK  182  A    between atoms: _456  and  _458
REMARK  183  A    between atoms: _458  and  _459
REMARK  184  A    between atoms: _458  and  _461
REMARK  185  A    between atoms: _461  and  _462
REMARK  186  A    between atoms: _467  and  _469
REMARK  187  A    between atoms: _469  and  _470
REMARK  188  A    between atoms: _469  and  _472
REMARK  189  A    between atoms: _472  and  _473
REMARK  190  A    between atoms: _476  and  _478
REMARK  191  A    between atoms: _478  and  _479
REMARK  192  A    between atoms: _478  and  _481
REMARK  193  A    between atoms: _481  and  _482
REMARK  194  A    between atoms: _485  and  _487
REMARK  195  A    between atoms: _487  and  _488
REMARK  196  A    between atoms: _490  and  _492
REMARK  197  A    between atoms: _492  and  _493
REMARK  198  A    between atoms: _492  and  _495
REMARK  199  A    between atoms: _495  and  _496
REMARK  200  A    between atoms: _496  and  _497
REMARK  201  A    between atoms: _497  and  _498
REMARK  202  A    between atoms: _507  and  _509
REMARK  203  A    between atoms: _509  and  _510
REMARK  204  A    between atoms: _509  and  _512
REMARK  205  A    between atoms: _512  and  _513
REMARK                            x       y       z     vdW  Elec       q    Type
REMARK                         _______ _______ _______ _____ _____    ______ ____
ROOT
ATOM      1  CA  LEU A   1     -13.198  12.717  14.774  0.00  0.00    +0.133 C 
ENDROOT
BRANCH   1   2
ATOM      2  N   LEU A   1     -14.011  13.888  14.566  0.00  0.00    -0.239 NA
ATOM      3  H   LEU A   1     -14.218  14.529  15.359  0.00  0.00    +0.142 HD
ENDBRANCH   1   2
BRANCH   1   4
ATOM      4  C   LEU A   1     -14.034  11.714  15.499  0.00  0.00    +0.224 C 
ATOM      5  O   LEU A   1     -14.767  12.072  16.417  0.00  0.00    -0.287 OA
ENDBRANCH   1   4
BRANCH   1   6
ATOM      6  CB  LEU A   1     -11.928  13.060  15.611  0.00  0.00    +0.025 C 
BRANCH   6   7
ATOM      7  CG  LEU A   1     -11.071  14.167  14.987  0.00  0.00    +0.002 C 
ATOM      8  CD2 LEU A   1      -9.992  14.696  15.937  0.00  0.00    +0.000 C 
ATOM      9  CD1 LEU A   1     -10.427  13.621  13.733  0.00  0.00    +0.000 C 
ENDBRANCH   6   7
ENDBRANCH   1   6
TORSDOF 4
REMARK  Name = ../refined-set-2016/1qbs/1qbs_pocket.pdb
REMARK  205 active torsions:
REMARK  status: ('A' for Active; 'I' for Inactive)
REMARK    1  A    between atoms: _1  and  _3
REMARK    2  A    between atoms: _3  and  _4
REMARK    3  A    between atoms: _3  and  _6
REMARK    4  A    between atoms: _6  and  _7
REMARK    5  A    between atoms: _7  and  _8
REMARK    6  A    between atoms: _8  and  _9
REMARK    7  A    between atoms: _18  and  _20
REMARK    8  A    between atoms: _20  and  _21
REMARK    9  A    between atoms: _20  and  _23
REMARK   10  A    between atoms: _23  and  _24
REMARK   11  A    between atoms: _27  and  _29
REMARK   12  A    between atoms: _29  and  _30
REMARK   13  A    between atoms: _29  and  _32
REMARK   14  A    between atoms: _32  and  _33
REMARK   15  A    between atoms: _36  and  _38
REMARK   16  A    between atoms: _38  and  _39
REMARK   17  A    between atoms: _38  and  _41
REMARK   18  A    between atoms: _41  and  _42
REMARK   19  A    between atoms: _45  and  _47
REMARK   20  A    between atoms: _47  and  _48
REMARK   21  A    between atoms: _47  and  _50
REMARK   22  A    between atoms: _50  and  _51
REMARK   23  A    between atoms: _54  and  _56
REMARK   24  A    between atoms: _56  and  _57
REMARK   25  A    between atoms: _59  and  _61
REMARK   26  A    between atoms: _61  and  _62
REMARK   27  A    between atoms: _65  and  _67
REMARK   28  A    between atoms: _67  and  _68
REMARK   29  A    between atoms: _67  and  _70
REMARK   30  A    between atoms: _70  and  _71
REMARK   31  A    between atoms: _74  and  _76
REMARK   32  A    between atoms: _76  and  _77
REMARK   33  A    between atoms: _76  and  _79
REMARK   34  A    between atoms: _79  and  _80
REMARK   35  A    between atoms: _83  and  _85
REMARK   36  A    between atoms: _85  and  _86
REMARK   37  A    between atoms: _85  and  _88
REMARK   38  A    between atoms: _88  and  _89
REMARK   39  A    between atoms: _92  and  _94
REMARK   40  A    between atoms: _94  and  _95
REMARK   41  A    between atoms: _94  and  _97
REMARK   42  A    between atoms: _100  and  _102
REMARK   43  A    between atoms: _102  and  _103
REMARK   44  A    between atoms: _102  and  _105
REMARK   45  A    between atoms: _106  and  _107
REMARK   46  A    between atoms: _107  and  _108
REMARK   47  A    between atoms: _108  and  _109
REMARK   48  A    between atoms: _113  and  _115
REMARK   49  A    between atoms: _115  and  _116
REMARK   50  A    between atoms: _115  and  _118
REMARK   51  A    between atoms: _118  and  _119
REMARK   52  A    between atoms: _122  and  _124
REMARK   53  A    between atoms: _124  and  _125
REMARK   54  A    between atoms: _127  and  _129
REMARK   55  A    between atoms: _129  and  _130
REMARK   56  A    between atoms: _132  and  _134
REMARK   57  A    between atoms: _134  and  _135
REMARK   58  A    between atoms: _134  and  _137
REMARK   59  A    between atoms: _137  and  _138
REMARK   60  A    between atoms: _141  and  _143
REMARK   61  A    between atoms: _143  and  _144
REMARK   62  A    between atoms: _146  and  _148
REMARK   63  A    between atoms: _148  and  _149
REMARK   64  A    between atoms: _151  and  _153
REMARK   65  A    between atoms: _153  and  _154
REMARK   66  A    between atoms: _153  and  _156
REMARK   67  A    between atoms: _156  and  _157
REMARK   68  A    between atoms: _160  and  _162
REMARK   69  A    between atoms: _162  and  _163
REMARK   70  A    between atoms: _162  and  _165
REMARK   71  A    between atoms: _168  and  _170
REMARK   72  A    between atoms: _170  and  _171
REMARK   73  A    between atoms: _170  and  _173
REMARK   74  A    between atoms: _173  and  _174
REMARK   75  A    between atoms: _178  and  _179
REMARK   76  A    between atoms: _184  and  _186
REMARK   77  A    between atoms: _186  and  _187
REMARK   78  A    between atoms: _186  and  _189
REMARK   79  A    between atoms: _189  and  _190
REMARK   80  A    between atoms: _194  and  _195
REMARK   81  A    between atoms: _200  and  _202
REMARK   82  A    between atoms: _202  and  _203
REMARK   83  A    between atoms: _202  and  _205
REMARK   84  A    between atoms: _208  and  _210
REMARK   85  A    between atoms: _210  and  _211
REMARK   86  A    between atoms: _210  and  _213
REMARK   87  A    between atoms: _213  and  _214
REMARK   88  A    between atoms: _219  and  _221
REMARK   89  A    between atoms: _221  and  _222
REMARK   90  A    between atoms: _221  and  _224
REMARK   91  A    between atoms: _224  and  _225
REMARK   92  A    between atoms: _228  and  _230
REMARK   93  A    between atoms: _230  and  _231
REMARK   94  A    between atoms: _230  and  _233
REMARK   95  A    between atoms: _233  and  _234
REMARK   96  A    between atoms: _237  and  _239
REMARK   97  A    between atoms: _239  and  _240
REMARK   98  A    between atoms: _242  and  _244
REMARK   99  A    between atoms: _244  and  _245
REMARK  100  A    between atoms: _244  and  _247
REMARK  101  A    between atoms: _247  and  _248
REMARK  102  A    between atoms: _248  and  _249
REMARK  103  A    between atoms: _249  and  _250
REMARK  104  A    between atoms: _259  and  _261
REMARK  105  A    between atoms: _261  and  _262
REMARK  106  A    between atoms: _261  and  _264
REMARK  107  A    between atoms: _264  and  _265
REMARK  108  A    between atoms: _270  and  _272
REMARK  109  A    between atoms: _272  and  _273
REMARK  110  A    between atoms: _272  and  _275
REMARK  111  A    between atoms: _275  and  _276
REMARK  112  A    between atoms: _276  and  _277
REMARK  113  A    between atoms: _277  and  _278
REMARK  114  A    between atoms: _287  and  _289
REMARK  115  A    between atoms: _289  and  _290
REMARK  116  A    between atoms: _289  and  _292
REMARK  117  A    between atoms: _292  and  _293
REMARK  118  A    between atoms: _296  and  _298
REMARK  119  A    between atoms: _298  and  _299
REMARK  120  A    between atoms: _298  and  _301
REMARK  121  A    between atoms: _301  and  _302
REMARK  122  A    between atoms: _305  and  _307
REMARK  123  A    between atoms: _307  and  _308
REMARK  124  A    between atoms: _307  and  _310
REMARK  125  A    between atoms: _310  and  _311
REMARK  126  A    between atoms: _314  and  _316
REMARK  127  A    between atoms: _316  and  _317
REMARK  128  A    between atoms: _316  and  _319
REMARK  129  A    between atoms: _319  and  _320
REMARK  130  A    between atoms: _323  and  _325
REMARK  131  A    between atoms: _325  and  _326
REMARK  132  A    between atoms: _328  and  _330
REMARK  133  A    between atoms: _330  and  _331
REMARK  134  A    between atoms: _334  and  _336
REMARK  135  A    between atoms: _336  and  _337
REMARK  136  A    between atoms: _336  and  _339
REMARK  137  A    between atoms: _339  and  _340
REMARK  138  A    between atoms: _343  and  _345
REMARK  139  A    between atoms: _345  and  _346
REMARK  140  A    between atoms: _345  and  _348
REMARK  141  A    between atoms: _348  and  _349
REMARK  142  A    between atoms: _352  and  _354
REMARK  143  A    between atoms: _354  and  _355
REMARK  144  A    between atoms: _354  and  _357
REMARK  145  A    between atoms: _357  and  _358
REMARK  146  A    between atoms: _361  and  _363
REMARK  147  A    between atoms: _363  and  _364
REMARK  148  A    between atoms: _363  and  _366
REMARK  149  A    between atoms: _369  and  _371
REMARK  150  A    between atoms: _371  and  _372
REMARK  151  A    between atoms: _371  and  _374
REMARK  152  A    between atoms: _374  and  _375
REMARK  153  A    between atoms: _378  and  _380
REMARK  154  A    between atoms: _380  and  _381
REMARK  155  A    between atoms: _383  and  _385
REMARK  156  A    between atoms: _385  and  _386
REMARK  157  A    between atoms: _388  and  _390
REMARK  158  A    between atoms: _390  and  _391
REMARK  159  A    between atoms: _390  and  _393
REMARK  160  A    between atoms: _393  and  _394
REMARK  161  A    between atoms: _397  and  _399
REMARK  162  A    between atoms: _399  and  _400
REMARK  163  A    between atoms: _402  and  _404
REMARK  164  A    between atoms: _404  and  _405
REMARK  165  A    between atoms: _407  and  _409
REMARK  166  A    between atoms: _409  and  _410
REMARK  167  A    between atoms: _409  and  _412
REMARK  168  A    between atoms: _412  and  _413
REMARK  169  A    between atoms: _416  and  _418
REMARK  170  A    between atoms: _418  and  _419
REMARK  171  A    between atoms: _418  and  _421
REMARK  172  A    between atoms: _421  and  _422
REMARK  173  A    between atoms: _426  and  _427
REMARK  174  A    between atoms: _432  and  _434
REMARK  175  A    between atoms: _434  and  _435
REMARK  176  A    between atoms: _434  and  _437
REMARK  177  A    between atoms: _437  and  _438
REMARK  178  A    between atoms: _442  and  _443
REMARK  179  A    between atoms: _448  and  _450
REMARK  180  A    between atoms: _450  and  _451
REMARK  181  A    between atoms: _450  and  _453
REMARK  182  A    between atoms: _456  and  _458
REMARK  183  A    between atoms: _458  and  _459
REMARK  184  A    between atoms: _458  and  _461
REMARK  185  A    between atoms: _461  and  _462
REMARK  186  A    between atoms: _467  and  _469
REMARK  187  A    between atoms: _469  and  _470
REMARK  188  A    between atoms: _469  and  _472
REMARK  189  A    between atoms: _472  and  _473
REMARK  190  A    between atoms: _476  and  _478
REMARK  191  A    between atoms: _478  and  _479
REMARK  192  A    between atoms: _478  and  _481
REMARK  193  A    between atoms: _481  and  _482
REMARK  194  A    between atoms: _485  and  _487
REMARK  195  A    between atoms: _487  and  _488
REMARK  196  A    between atoms: _490  and  _492
REMARK  197  A    between atoms: _492  and  _493
REMARK  198  A    between atoms: _492  and  _495
REMARK  199  A    between atoms: _495  and  _496
REMARK  200  A    between atoms: _496  and  _497
REMARK  201  A    between atoms: _497  and  _498
REMARK  202  A    between atoms: _507  and  _509
REMARK  203  A    between atoms: _509  and  _510
REMARK  204  A    between atoms: _509  and  _512
REMARK  205  A    between atoms: _512  and  _513
REMARK                            x       y       z     vdW  Elec       q    Type
REMARK                         _______ _______ _______ _____ _____    ______ ____
ROOT
ATOM      1  CA  ILE A   6     -16.731  16.358  22.819  0.00  0.00    +0.149 C 
ENDROOT
BRANCH   1   2
ATOM      2  C   ILE A   6     -16.889  17.251  21.615  0.00  0.00    +0.241 C 
ATOM      3  N   ILE A   7     -17.416  18.462  21.839  0.00  0.00    -0.297 N 
ATOM      4  H   ILE A   7     -17.846  18.640  22.769  0.00  0.00    +0.150 HD
ATOM      5  O   ILE A   6     -16.527  16.848  20.522  0.00  0.00    -0.273 OA
BRANCH   3   6
ATOM      6  CA  ILE A   7     -17.427  19.567  20.847  0.00  0.00    +0.149 C 
BRANCH   6   7
ATOM      7  C   ILE A   7     -16.331  20.531  21.225  0.00  0.00    +0.241 C 
ATOM      8  O   ILE A   7     -16.372  21.109  22.285  0.00  0.00    -0.273 OA
ATOM      9  N   GLY A   8     -15.335  20.643  20.370  0.00  0.00    -0.295 N 
ATOM     10  H   GLY A   8     -15.378  20.123  19.470  0.00  0.00    +0.150 HD
BRANCH   9  11
ATOM     11  CA  GLY A   8     -14.183  21.471  20.652  0.00  0.00    +0.176 C 
BRANCH  11  12
ATOM     12  C   GLY A   8     -14.248  22.711  19.836  0.00  0.00    +0.243 C 
ATOM     13  N   ARG A   9     -13.131  23.367  19.836  0.00  0.00    -0.297 N 
ATOM     14  H   ARG A   9     -12.250  22.943  20.190  0.00  0.00    +0.150 HD
ATOM     15  O   GLY A   8     -15.229  23.111  19.214  0.00  0.00    -0.273 OA
BRANCH  13  16
ATOM     16  CA  ARG A   9     -13.169  24.714  19.321  0.00  0.00    +0.149 C 
BRANCH  16  17
ATOM     17  C   ARG A   9     -13.448  24.922  17.835  0.00  0.00    +0.241 C 
ATOM     18  O   ARG A   9     -14.050  25.911  17.410  0.00  0.00    -0.273 OA
ATOM     19  N   ASN A  10     -13.062  23.955  17.046  0.00  0.00    -0.298 N 
ATOM     20  H   ASN A  10     -12.481  23.167  17.395  0.00  0.00    +0.150 HD
BRANCH  19  21
ATOM     21  CA  ASN A  10     -13.485  24.033  15.650  0.00  0.00    +0.146 C 
BRANCH  21  22
ATOM     22  C   ASN A  10     -14.968  24.172  15.349  0.00  0.00    +0.227 C 
ATOM     23  O   ASN A  10     -15.367  24.843  14.413  0.00  0.00    -0.286 OA
ENDBRANCH  21  22
BRANCH  21  24
ATOM     24  CB  ASN A  10     -12.927  22.823  14.899  0.00  0.00    +0.112 C 
BRANCH  24  25
ATOM     25  CG  ASN A  10     -13.700  21.560  15.153  0.00  0.00    +0.222 C 
ATOM     26  OD1 ASN A  10     -14.004  21.162  16.275  0.00  0.00    -0.275 OA
ATOM     27  ND2 ASN A  10     -14.069  20.976  14.037  0.00  0.00    -0.329 N 
ATOM     28 HD21 ASN A  10     -14.657  20.119  14.068  0.00  0.00    +0.145 HD
ATOM     29 HD22 ASN A  10     -13.773  21.370  13.121  0.00  0.00    +0.145 HD
ENDBRANCH  24  25
ENDBRANCH  21  24
ENDBRANCH  19  21
ENDBRANCH  16  17
BRANCH  16  30
ATOM     30  CB  ARG A   9     -11.875  25.399  19.763  0.00  0.00    +0.033 C 
BRANCH  30  31
ATOM     31  CG  ARG A   9     -11.737  25.637  21.288  0.00  0.00    +0.045 C 
BRANCH  31  32
ATOM     32  CD  ARG A   9     -10.490  26.503  21.442  0.00  0.00    +0.174 C 
BRANCH  32  33
ATOM     33  NE  ARG A   9      -9.304  25.818  20.913  0.00  0.00    -0.265 N 
ATOM     34  HE  ARG A   9      -8.976  24.965  21.409  0.00  0.00    +0.259 HD
ATOM     35  CZ  ARG A   9      -8.611  26.218  19.830  0.00  0.00    +0.342 C 
ATOM     36  NH2 ARG A   9      -7.477  25.609  19.514  0.00  0.00    -0.292 N 
ATOM     37 HH21 ARG A   9      -7.126  24.826  20.102  0.00  0.00    +0.255 HD
ATOM     38 HH22 ARG A   9      -6.938  25.914  18.679  0.00  0.00    +0.255 HD
ATOM     39  NH1 ARG A   9      -9.007  27.208  19.032  0.00  0.00    -0.292 N 
ATOM     40 HH11 ARG A   9      -9.893  27.715  19.232  0.00  0.00    +0.255 HD
ATOM     41 HH12 ARG A   9      -8.430  27.474  18.208  0.00  0.00    +0.255 HD
ENDBRANCH  32  33
ENDBRANCH  31  32
ENDBRANCH  30  31
ENDBRANCH  16  30
ENDBRANCH  13  16
ENDBRANCH  11  12
ENDBRANCH   9  11
ENDBRANCH   6   7
BRANCH   6  42
ATOM     42  CB  ILE A   7     -18.735  20.394  20.863  0.00  0.00    +0.027 C 
ATOM     43  CG2 ILE A   7     -18.757  21.365  19.697  0.00  0.00    +0.002 C 
BRANCH  42  44
ATOM     44  CG1 ILE A   7     -20.030  19.565  20.922  0.00  0.00    +0.002 C 
ATOM     45  CD1 ILE A   7     -20.184  18.620  19.768  0.00  0.00    +0.000 C 
ENDBRANCH  42  44
ENDBRANCH   6  42
ENDBRANCH   3   6
ENDBRANCH   1   2
BRANCH   1  48
ATOM     46  C   ASN A   5     -18.274  14.532  23.369  0.00  0.00    +0.241 C 
ATOM     47  O   ASN A   5     -18.828  15.159  24.272  0.00  0.00    -0.273 OA
ATOM     48  N   ILE A   6     -17.323  15.036  22.612  0.00  0.00    -0.297 N 
ATOM     49  H   ILE A   6     -16.971  14.461  21.820  0.00  0.00    +0.150 HD
BRANCH  46  50
ATOM     50  CA  ASN A   5     -18.659  13.102  23.048  0.00  0.00    +0.158 C 
BRANCH  50  52
ATOM     51  C   VAL A   4     -17.552  11.905  24.765  0.00  0.00    +0.241 C 
ATOM     52  N   ASN A   5     -18.697  12.331  24.300  0.00  0.00    -0.297 N 
ATOM     53  H   ASN A   5     -19.592  12.134  24.792  0.00  0.00    +0.150 HD
ATOM     54  O   VAL A   4     -16.512  12.042  24.139  0.00  0.00    -0.273 OA
BRANCH  51  55
ATOM     55  CA  VAL A   4     -17.584  11.223  26.118  0.00  0.00    +0.149 C 
BRANCH  55  58
ATOM     56  C   PRO A   3     -16.824   8.898  26.629  0.00  0.00    +0.241 C 
ATOM     57  O   PRO A   3     -17.881   8.592  27.166  0.00  0.00    -0.273 OA
ATOM     58  N   VAL A   4     -16.603  10.118  26.103  0.00  0.00    -0.297 N 
ATOM     59  H   VAL A   4     -15.680  10.294  25.656  0.00  0.00    +0.150 HD
BRANCH  56  62
ATOM     60  C   THR A   2     -14.728   8.031  24.403  0.00  0.00    +0.246 C 
ATOM     61  N   PRO A   3     -14.573   8.215  25.701  0.00  0.00    -0.272 N 
ATOM     62  CA  PRO A   3     -15.680   7.882  26.594  0.00  0.00    +0.152 C 
ATOM     63  CB  PRO A   3     -14.910   7.812  27.910  0.00  0.00    +0.031 C 
ATOM     64  CG  PRO A   3     -13.721   8.780  27.849  0.00  0.00    +0.024 C 
ATOM     65  CD  PRO A   3     -13.350   8.691  26.381  0.00  0.00    +0.094 C 
ATOM     66  O   THR A   2     -15.686   7.461  23.913  0.00  0.00    -0.273 OA
BRANCH  60  67
ATOM     67  CA  THR A   2     -13.609   8.569  23.542  0.00  0.00    +0.176 C 
BRANCH  67  70
ATOM     68  C   PRO A   1     -12.770   6.623  22.479  0.00  0.00    +0.239 C 
ATOM     69  O   PRO A   1     -11.987   6.455  23.402  0.00  0.00    -0.274 OA
ATOM     70  N   THR A   2     -13.518   7.695  22.398  0.00  0.00    -0.295 N 
ATOM     71  H   THR A   2     -14.038   7.912  21.524  0.00  0.00    +0.150 HD
BRANCH  68  73
ATOM     72  N   PRO A   1     -12.748   6.027  19.980  0.00  0.00    -0.210 NA
ATOM     73  CA  PRO A   1     -12.961   5.581  21.361  0.00  0.00    +0.149 C 
ATOM     74  CB  PRO A   1     -11.957   4.420  21.453  0.00  0.00    +0.028 C 
ATOM     75  CG  PRO A   1     -10.833   4.771  20.498  0.00  0.00    +0.021 C 
ATOM     76  CD  PRO A   1     -11.575   5.432  19.358  0.00  0.00    +0.089 C 
ENDBRANCH  68  73
ENDBRANCH  67  70
BRANCH  67  77
ATOM     77  CB  THR A   2     -13.939   9.963  23.005  0.00  0.00    +0.137 C 
ATOM     78  CG2 THR A   2     -15.210   9.958  22.143  0.00  0.00    +0.034 C 
BRANCH  77  79
ATOM     79  OG1 THR A   2     -14.049  10.896  24.081  0.00  0.00    -0.382 OA
ATOM     80  HG1 THR A   2     -14.262  11.792  23.719  0.00  0.00    +0.210 HD
ENDBRANCH  77  79
ENDBRANCH  67  77
ENDBRANCH  60  67
ENDBRANCH  56  62
ENDBRANCH  55  58
BRANCH  55  81
ATOM     81  CB  VAL A   4     -17.402  12.306  27.250  0.00  0.00    +0.027 C 
ATOM     82  CG2 VAL A   4     -17.562  11.766  28.665  0.00  0.00    +0.002 C 
ATOM     83  CG1 VAL A   4     -16.061  13.000  27.199  0.00  0.00    +0.002 C 
ENDBRANCH  55  81
ENDBRANCH  51  55
ENDBRANCH  50  52
BRANCH  50  84
ATOM     84  CB  ASN A   5     -20.053  13.186  22.359  0.00  0.00    +0.114 C 
BRANCH  84  85
ATOM     85  CG  ASN A   5     -20.680  11.876  21.954  0.00  0.00    +0.222 C 
ATOM     86  ND2 ASN A   5     -21.925  11.637  22.365  0.00  0.00    -0.329 N 
ATOM     87 HD21 ASN A   5     -22.427  12.343  22.940  0.00  0.00    +0.145 HD
ATOM     88 HD22 ASN A   5     -22.394  10.745  22.110  0.00  0.00    +0.145 HD
ATOM     89  OD1 ASN A   5     -20.067  11.076  21.283  0.00  0.00    -0.275 OA
ENDBRANCH  84  85
ENDBRANCH  50  84
ENDBRANCH  46  50
ENDBRANCH   1  48
BRANCH   1  90
ATOM     90  CB  ILE A   6     -15.222  16.144  23.128  0.00  0.00    +0.027 C 
ATOM     91  CG2 ILE A   6     -14.402  17.434  22.975  0.00  0.00    +0.002 C 
BRANCH  90  92
ATOM     92  CG1 ILE A   6     -15.090  15.490  24.505  0.00  0.00    +0.002 C 
ATOM     93  CD1 ILE A   6     -13.735  14.877  24.762  0.00  0.00    +0.000 C 
ENDBRANCH  90  92
ENDBRANCH   1  90
TORSDOF 33
