REMARK  Name = ../refined-set-2016/3t2q/3t2q_pocket.pdb
REMARK  186 active torsions:
REMARK  status: ('A' for Active; 'I' for Inactive)
REMARK    1  A    between atoms: _1  and  _3
REMARK    2  A    between atoms: _3  and  _4
REMARK    3  A    between atoms: _3  and  _6
REMARK    4  A    between atoms: _6  and  _7
REMARK    5  A    between atoms: _12  and  _13
REMARK    6  A    between atoms: _15  and  _17
REMARK    7  A    between atoms: _17  and  _18
REMARK    8  A    between atoms: _17  and  _20
REMARK    9  A    between atoms: _20  and  _21
REMARK   10  A    between atoms: _24  and  _26
REMARK   11  A    between atoms: _26  and  _27
REMARK   12  A    between atoms: _26  and  _29
REMARK   13  A    between atoms: _29  and  _30
REMARK   14  A    between atoms: _35  and  _37
REMARK   15  A    between atoms: _37  and  _38
REMARK   16  A    between atoms: _37  and  _40
REMARK   17  A    between atoms: _43  and  _45
REMARK   18  A    between atoms: _45  and  _46
REMARK   19  A    between atoms: _45  and  _48
REMARK   20  A    between atoms: _48  and  _49
REMARK   21  A    between atoms: _52  and  _54
REMARK   22  A    between atoms: _54  and  _55
REMARK   23  A    between atoms: _54  and  _57
REMARK   24  A    between atoms: _57  and  _58
REMARK   25  A    between atoms: _58  and  _59
REMARK   26  A    between atoms: _64  and  _66
REMARK   27  A    between atoms: _66  and  _67
REMARK   28  A    between atoms: _66  and  _69
REMARK   29  A    between atoms: _69  and  _70
REMARK   30  A    between atoms: _73  and  _75
REMARK   31  A    between atoms: _75  and  _76
REMARK   32  A    between atoms: _75  and  _78
REMARK   33  A    between atoms: _78  and  _79
REMARK   34  A    between atoms: _79  and  _80
REMARK   35  A    between atoms: _82  and  _84
REMARK   36  A    between atoms: _84  and  _85
REMARK   37  A    between atoms: _84  and  _87
REMARK   38  A    between atoms: _87  and  _88
REMARK   39  A    between atoms: _88  and  _89
REMARK   40  A    between atoms: _89  and  _90
REMARK   41  A    between atoms: _99  and  _101
REMARK   42  A    between atoms: _101  and  _102
REMARK   43  A    between atoms: _101  and  _104
REMARK   44  A    between atoms: _104  and  _105
REMARK   45  A    between atoms: _110  and  _112
REMARK   46  A    between atoms: _112  and  _113
REMARK   47  A    between atoms: _112  and  _115
REMARK   48  A    between atoms: _115  and  _116
REMARK   49  A    between atoms: _121  and  _123
REMARK   50  A    between atoms: _123  and  _124
REMARK   51  A    between atoms: _123  and  _126
REMARK   52  A    between atoms: _126  and  _127
REMARK   53  A    between atoms: _127  and  _128
REMARK   54  A    between atoms: _128  and  _129
REMARK   55  A    between atoms: _138  and  _140
REMARK   56  A    between atoms: _140  and  _141
REMARK   57  A    between atoms: _140  and  _143
REMARK   58  A    between atoms: _143  and  _144
REMARK   59  A    between atoms: _146  and  _148
REMARK   60  A    between atoms: _148  and  _149
REMARK   61  A    between atoms: _148  and  _151
REMARK   62  A    between atoms: _151  and  _152
REMARK   63  A    between atoms: _157  and  _159
REMARK   64  A    between atoms: _159  and  _160
REMARK   65  A    between atoms: _159  and  _162
REMARK   66  A    between atoms: _162  and  _163
REMARK   67  A    between atoms: _163  and  _164
REMARK   68  A    between atoms: _167  and  _169
REMARK   69  A    between atoms: _169  and  _170
REMARK   70  A    between atoms: _169  and  _172
REMARK   71  A    between atoms: _172  and  _173
REMARK   72  A    between atoms: _173  and  _174
REMARK   73  A    between atoms: _177  and  _179
REMARK   74  A    between atoms: _179  and  _180
REMARK   75  A    between atoms: _179  and  _182
REMARK   76  A    between atoms: _182  and  _183
REMARK   77  A    between atoms: _184  and  MG_443
REMARK   78  A    between atoms: _188  and  _190
REMARK   79  A    between atoms: _190  and  _191
REMARK   80  A    between atoms: _190  and  _193
REMARK   81  A    between atoms: _193  and  _194
REMARK   82  A    between atoms: _199  and  _201
REMARK   83  A    between atoms: _201  and  _202
REMARK   84  A    between atoms: _201  and  _204
REMARK   85  A    between atoms: _204  and  _205
REMARK   86  A    between atoms: _205  and  _206
REMARK   87  A    between atoms: _209  and  _211
REMARK   88  A    between atoms: _211  and  _212
REMARK   89  A    between atoms: _211  and  _214
REMARK   90  A    between atoms: _214  and  _215
REMARK   91  A    between atoms: _215  and  _216
REMARK   92  A    between atoms: _219  and  _221
REMARK   93  A    between atoms: _221  and  _222
REMARK   94  A    between atoms: _221  and  _224
REMARK   95  A    between atoms: _224  and  _225
REMARK   96  A    between atoms: _225  and  _226
REMARK   97  A    between atoms: _228  and  _230
REMARK   98  A    between atoms: _230  and  _231
REMARK   99  A    between atoms: _230  and  _233
REMARK  100  A    between atoms: _233  and  _234
REMARK  101  A    between atoms: _239  and  _240
REMARK  102  A    between atoms: _242  and  _244
REMARK  103  A    between atoms: _244  and  _245
REMARK  104  A    between atoms: _244  and  _247
REMARK  105  A    between atoms: _247  and  _248
REMARK  106  A    between atoms: _248  and  _249
REMARK  107  A    between atoms: _249  and  _250
REMARK  108  A    between atoms: _250  and  _251
REMARK  109  A    between atoms: _255  and  _257
REMARK  110  A    between atoms: _257  and  _258
REMARK  111  A    between atoms: _257  and  _260
REMARK  112  A    between atoms: _262  and  _264
REMARK  113  A    between atoms: _264  and  _265
REMARK  114  A    between atoms: _264  and  _267
REMARK  115  A    between atoms: _267  and  _268
REMARK  116  A    between atoms: _268  and  _269
REMARK  117  A    between atoms: _272  and  _274
REMARK  118  A    between atoms: _274  and  _275
REMARK  119  A    between atoms: _274  and  _277
REMARK  120  A    between atoms: _277  and  _278
REMARK  121  A    between atoms: _283  and  _285
REMARK  122  A    between atoms: _285  and  _286
REMARK  123  A    between atoms: _289  and  _291
REMARK  124  A    between atoms: _291  and  _292
REMARK  125  A    between atoms: _291  and  _294
REMARK  126  A    between atoms: _294  and  _295
REMARK  127  A    between atoms: _295  and  _296
REMARK  128  A    between atoms: _298  and  _300
REMARK  129  A    between atoms: _300  and  _301
REMARK  130  A    between atoms: _300  and  _303
REMARK  131  A    between atoms: _303  and  _304
REMARK  132  A    between atoms: _314  and  _316
REMARK  133  A    between atoms: _316  and  _317
REMARK  134  A    between atoms: _316  and  _319
REMARK  135  A    between atoms: _319  and  _320
REMARK  136  A    between atoms: _323  and  _325
REMARK  137  A    between atoms: _325  and  _326
REMARK  138  A    between atoms: _325  and  _328
REMARK  139  A    between atoms: _328  and  _329
REMARK  140  A    between atoms: _329  and  _330
REMARK  141  A    between atoms: _335  and  _337
REMARK  142  A    between atoms: _337  and  _338
REMARK  143  A    between atoms: _337  and  _340
REMARK  144  A    between atoms: _340  and  _341
REMARK  145  A    between atoms: _341  and  _342
REMARK  146  A    between atoms: _347  and  _349
REMARK  147  A    between atoms: _349  and  _350
REMARK  148  A    between atoms: _349  and  _352
REMARK  149  A    between atoms: _352  and  _353
REMARK  150  A    between atoms: _359  and  _361
REMARK  151  A    between atoms: _361  and  _362
REMARK  152  A    between atoms: _361  and  _364
REMARK  153  A    between atoms: _366  and  _368
REMARK  154  A    between atoms: _368  and  _369
REMARK  155  A    between atoms: _368  and  _371
REMARK  156  A    between atoms: _371  and  _372
REMARK  157  A    between atoms: _372  and  _373
REMARK  158  A    between atoms: _375  and  _377
REMARK  159  A    between atoms: _377  and  _378
REMARK  160  A    between atoms: _377  and  _380
REMARK  161  A    between atoms: _380  and  _381
REMARK  162  A    between atoms: _381  and  _382
REMARK  163  A    between atoms: _381  and  _383
REMARK  164  A    between atoms: _386  and  _388
REMARK  165  A    between atoms: _388  and  _389
REMARK  166  A    between atoms: _391  and  _393
REMARK  167  A    between atoms: _393  and  _394
REMARK  168  A    between atoms: _393  and  _396
REMARK  169  A    between atoms: _396  and  _397
REMARK  170  A    between atoms: _400  and  _402
REMARK  171  A    between atoms: _402  and  _403
REMARK  172  A    between atoms: _402  and  _405
REMARK  173  A    between atoms: _405  and  _406
REMARK  174  A    between atoms: _409  and  _411
REMARK  175  A    between atoms: _411  and  _412
REMARK  176  A    between atoms: _411  and  _414
REMARK  177  A    between atoms: _414  and  _415
REMARK  178  A    between atoms: _417  and  _419
REMARK  179  A    between atoms: _419  and  _420
REMARK  180  A    between atoms: _419  and  _422
REMARK  181  A    between atoms: _422  and  _423
REMARK  182  A    between atoms: _433  and  _435
REMARK  183  A    between atoms: _435  and  _436
REMARK  184  A    between atoms: _435  and  _438
REMARK  185  A    between atoms: _438  and  _439
REMARK  186  A    between atoms: _439  and  _440
REMARK                            x       y       z     vdW  Elec       q    Type
REMARK                         _______ _______ _______ _____ _____    ______ ____
ROOT
ATOM      1  CA  THR A   2     -14.804 -39.144 -27.176  0.00  0.00    +0.176 C 
ENDROOT
BRANCH   1   3
ATOM      2  C   TYR A   1     -14.084 -40.588 -29.017  0.00  0.00    +0.239 C 
ATOM      3  N   THR A   2     -13.792 -39.876 -27.932  0.00  0.00    -0.295 N 
ATOM      4  H   THR A   2     -12.804 -39.839 -27.610  0.00  0.00    +0.150 HD
ATOM      5  O   TYR A   1     -15.233 -40.863 -29.368  0.00  0.00    -0.274 OA
BRANCH   2   6
ATOM      6  CA  TYR A   1     -12.882 -41.078 -29.808  0.00  0.00    +0.149 C 
BRANCH   6   7
ATOM      7  N   TYR A   1     -12.840 -42.528 -29.870  0.00  0.00    -0.238 NA
ATOM      8  H   TYR A   1     -13.444 -43.049 -30.537  0.00  0.00    +0.142 HD
ENDBRANCH   6   7
BRANCH   6   9
ATOM      9  CB  TYR A   1     -12.821 -40.391 -31.175  0.00  0.00    +0.053 C 
BRANCH   9  10
ATOM     10  CG  TYR A   1     -12.915 -38.895 -31.014  0.00  0.00    -0.020 A 
ATOM     11  CD2 TYR A   1     -11.861 -38.167 -30.457  0.00  0.00    -0.001 A 
ATOM     12  CE2 TYR A   1     -11.955 -36.800 -30.269  0.00  0.00    +0.036 A 
ATOM     13  CZ  TYR A   1     -13.121 -36.143 -30.635  0.00  0.00    +0.134 A 
ATOM     14  CE1 TYR A   1     -14.181 -36.848 -31.184  0.00  0.00    +0.036 A 
ATOM     15  CD1 TYR A   1     -14.077 -38.215 -31.361  0.00  0.00    -0.001 A 
BRANCH  13  16
ATOM     16  OH  TYR A   1     -13.235 -34.780 -30.469  0.00  0.00    -0.506 OA
ATOM     17  HH  TYR A   1     -12.401 -34.427 -30.069  0.00  0.00    +0.292 HD
ENDBRANCH  13  16
ENDBRANCH   9  10
ENDBRANCH   6   9
ENDBRANCH   2   6
ENDBRANCH   1   3
BRANCH   1  18
ATOM     18  C   THR A   2     -14.221 -37.816 -26.672  0.00  0.00    +0.243 C 
ATOM     19  O   THR A   2     -13.025 -37.720 -26.371  0.00  0.00    -0.273 OA
ATOM     20  N   ASN A   3     -15.071 -36.795 -26.627  0.00  0.00    -0.297 N 
ATOM     21  H   ASN A   3     -16.065 -36.963 -26.882  0.00  0.00    +0.150 HD
BRANCH  20  22
ATOM     22  CA  ASN A   3     -14.669 -35.447 -26.235  0.00  0.00    +0.158 C 
BRANCH  22  23
ATOM     23  C   ASN A   3     -14.767 -35.239 -24.725  0.00  0.00    +0.241 C 
ATOM     24  O   ASN A   3     -13.758 -35.328 -24.022  0.00  0.00    -0.273 OA
ATOM     25  N   VAL A   4     -15.981 -34.970 -24.242  0.00  0.00    -0.298 N 
ATOM     26  H   VAL A   4     -16.792 -34.964 -24.893  0.00  0.00    +0.150 HD
BRANCH  25  27
ATOM     27  CA  VAL A   4     -16.209 -34.683 -22.827  0.00  0.00    +0.137 C 
BRANCH  27  28
ATOM     28  CB  VAL A   4     -17.302 -33.591 -22.613  0.00  0.00    +0.026 C 
ATOM     29  CG2 VAL A   4     -17.685 -33.465 -21.124  0.00  0.00    +0.002 C 
ATOM     30  CG1 VAL A   4     -16.832 -32.254 -23.163  0.00  0.00    +0.002 C 
ENDBRANCH  27  28
BRANCH  27  31
ATOM     31  C   VAL A   4     -16.567 -35.944 -22.055  0.00  0.00    +0.227 C 
ATOM     32  O   VAL A   4     -15.885 -36.298 -21.087  0.00  0.00    -0.286 OA
ENDBRANCH  27  31
ENDBRANCH  25  27
ENDBRANCH  22  23
BRANCH  22  33
ATOM     33  CB  ASN A   3     -15.484 -34.382 -26.999  0.00  0.00    +0.114 C 
BRANCH  33  34
ATOM     34  CG  ASN A   3     -15.117 -32.948 -26.598  0.00  0.00    +0.222 C 
ATOM     35  OD1 ASN A   3     -14.168 -32.714 -25.845  0.00  0.00    -0.275 OA
ATOM     36  ND2 ASN A   3     -15.884 -31.987 -27.094  0.00  0.00    -0.329 N 
ATOM     37 HD21 ASN A   3     -15.695 -30.994 -26.851  0.00  0.00    +0.145 HD
ATOM     38 HD22 ASN A   3     -16.675 -32.227 -27.726  0.00  0.00    +0.145 HD
ENDBRANCH  33  34
ENDBRANCH  22  33
ENDBRANCH  20  22
ENDBRANCH   1  18
BRANCH   1  39
ATOM     39  CB  THR A   2     -15.448 -40.000 -26.043  0.00  0.00    +0.137 C 
ATOM     40  CG2 THR A   2     -14.411 -40.467 -25.009  0.00  0.00    +0.034 C 
BRANCH  39  41
ATOM     41  OG1 THR A   2     -16.477 -39.242 -25.396  0.00  0.00    -0.382 OA
ATOM     42  HG1 THR A   2     -16.884 -39.787 -24.677  0.00  0.00    +0.210 HD
ENDBRANCH  39  41
ENDBRANCH   1  39
TORSDOF 16
REMARK  Name = ../refined-set-2016/3t2q/3t2q_pocket.pdb
REMARK  186 active torsions:
REMARK  status: ('A' for Active; 'I' for Inactive)
REMARK    1  A    between atoms: _1  and  _3
REMARK    2  A    between atoms: _3  and  _4
REMARK    3  A    between atoms: _3  and  _6
REMARK    4  A    between atoms: _6  and  _7
REMARK    5  A    between atoms: _12  and  _13
REMARK    6  A    between atoms: _15  and  _17
REMARK    7  A    between atoms: _17  and  _18
REMARK    8  A    between atoms: _17  and  _20
REMARK    9  A    between atoms: _20  and  _21
REMARK   10  A    between atoms: _24  and  _26
REMARK   11  A    between atoms: _26  and  _27
REMARK   12  A    between atoms: _26  and  _29
REMARK   13  A    between atoms: _29  and  _30
REMARK   14  A    between atoms: _35  and  _37
REMARK   15  A    between atoms: _37  and  _38
REMARK   16  A    between atoms: _37  and  _40
REMARK   17  A    between atoms: _43  and  _45
REMARK   18  A    between atoms: _45  and  _46
REMARK   19  A    between atoms: _45  and  _48
REMARK   20  A    between atoms: _48  and  _49
REMARK   21  A    between atoms: _52  and  _54
REMARK   22  A    between atoms: _54  and  _55
REMARK   23  A    between atoms: _54  and  _57
REMARK   24  A    between atoms: _57  and  _58
REMARK   25  A    between atoms: _58  and  _59
REMARK   26  A    between atoms: _64  and  _66
REMARK   27  A    between atoms: _66  and  _67
REMARK   28  A    between atoms: _66  and  _69
REMARK   29  A    between atoms: _69  and  _70
REMARK   30  A    between atoms: _73  and  _75
REMARK   31  A    between atoms: _75  and  _76
REMARK   32  A    between atoms: _75  and  _78
REMARK   33  A    between atoms: _78  and  _79
REMARK   34  A    between atoms: _79  and  _80
REMARK   35  A    between atoms: _82  and  _84
REMARK   36  A    between atoms: _84  and  _85
REMARK   37  A    between atoms: _84  and  _87
REMARK   38  A    between atoms: _87  and  _88
REMARK   39  A    between atoms: _88  and  _89
REMARK   40  A    between atoms: _89  and  _90
REMARK   41  A    between atoms: _99  and  _101
REMARK   42  A    between atoms: _101  and  _102
REMARK   43  A    between atoms: _101  and  _104
REMARK   44  A    between atoms: _104  and  _105
REMARK   45  A    between atoms: _110  and  _112
REMARK   46  A    between atoms: _112  and  _113
REMARK   47  A    between atoms: _112  and  _115
REMARK   48  A    between atoms: _115  and  _116
REMARK   49  A    between atoms: _121  and  _123
REMARK   50  A    between atoms: _123  and  _124
REMARK   51  A    between atoms: _123  and  _126
REMARK   52  A    between atoms: _126  and  _127
REMARK   53  A    between atoms: _127  and  _128
REMARK   54  A    between atoms: _128  and  _129
REMARK   55  A    between atoms: _138  and  _140
REMARK   56  A    between atoms: _140  and  _141
REMARK   57  A    between atoms: _140  and  _143
REMARK   58  A    between atoms: _143  and  _144
REMARK   59  A    between atoms: _146  and  _148
REMARK   60  A    between atoms: _148  and  _149
REMARK   61  A    between atoms: _148  and  _151
REMARK   62  A    between atoms: _151  and  _152
REMARK   63  A    between atoms: _157  and  _159
REMARK   64  A    between atoms: _159  and  _160
REMARK   65  A    between atoms: _159  and  _162
REMARK   66  A    between atoms: _162  and  _163
REMARK   67  A    between atoms: _163  and  _164
REMARK   68  A    between atoms: _167  and  _169
REMARK   69  A    between atoms: _169  and  _170
REMARK   70  A    between atoms: _169  and  _172
REMARK   71  A    between atoms: _172  and  _173
REMARK   72  A    between atoms: _173  and  _174
REMARK   73  A    between atoms: _177  and  _179
REMARK   74  A    between atoms: _179  and  _180
REMARK   75  A    between atoms: _179  and  _182
REMARK   76  A    between atoms: _182  and  _183
REMARK   77  A    between atoms: _184  and  MG_443
REMARK   78  A    between atoms: _188  and  _190
REMARK   79  A    between atoms: _190  and  _191
REMARK   80  A    between atoms: _190  and  _193
REMARK   81  A    between atoms: _193  and  _194
REMARK   82  A    between atoms: _199  and  _201
REMARK   83  A    between atoms: _201  and  _202
REMARK   84  A    between atoms: _201  and  _204
REMARK   85  A    between atoms: _204  and  _205
REMARK   86  A    between atoms: _205  and  _206
REMARK   87  A    between atoms: _209  and  _211
REMARK   88  A    between atoms: _211  and  _212
REMARK   89  A    between atoms: _211  and  _214
REMARK   90  A    between atoms: _214  and  _215
REMARK   91  A    between atoms: _215  and  _216
REMARK   92  A    between atoms: _219  and  _221
REMARK   93  A    between atoms: _221  and  _222
REMARK   94  A    between atoms: _221  and  _224
REMARK   95  A    between atoms: _224  and  _225
REMARK   96  A    between atoms: _225  and  _226
REMARK   97  A    between atoms: _228  and  _230
REMARK   98  A    between atoms: _230  and  _231
REMARK   99  A    between atoms: _230  and  _233
REMARK  100  A    between atoms: _233  and  _234
REMARK  101  A    between atoms: _239  and  _240
REMARK  102  A    between atoms: _242  and  _244
REMARK  103  A    between atoms: _244  and  _245
REMARK  104  A    between atoms: _244  and  _247
REMARK  105  A    between atoms: _247  and  _248
REMARK  106  A    between atoms: _248  and  _249
REMARK  107  A    between atoms: _249  and  _250
REMARK  108  A    between atoms: _250  and  _251
REMARK  109  A    between atoms: _255  and  _257
REMARK  110  A    between atoms: _257  and  _258
REMARK  111  A    between atoms: _257  and  _260
REMARK  112  A    between atoms: _262  and  _264
REMARK  113  A    between atoms: _264  and  _265
REMARK  114  A    between atoms: _264  and  _267
REMARK  115  A    between atoms: _267  and  _268
REMARK  116  A    between atoms: _268  and  _269
REMARK  117  A    between atoms: _272  and  _274
REMARK  118  A    between atoms: _274  and  _275
REMARK  119  A    between atoms: _274  and  _277
REMARK  120  A    between atoms: _277  and  _278
REMARK  121  A    between atoms: _283  and  _285
REMARK  122  A    between atoms: _285  and  _286
REMARK  123  A    between atoms: _289  and  _291
REMARK  124  A    between atoms: _291  and  _292
REMARK  125  A    between atoms: _291  and  _294
REMARK  126  A    between atoms: _294  and  _295
REMARK  127  A    between atoms: _295  and  _296
REMARK  128  A    between atoms: _298  and  _300
REMARK  129  A    between atoms: _300  and  _301
REMARK  130  A    between atoms: _300  and  _303
REMARK  131  A    between atoms: _303  and  _304
REMARK  132  A    between atoms: _314  and  _316
REMARK  133  A    between atoms: _316  and  _317
REMARK  134  A    between atoms: _316  and  _319
REMARK  135  A    between atoms: _319  and  _320
REMARK  136  A    between atoms: _323  and  _325
REMARK  137  A    between atoms: _325  and  _326
REMARK  138  A    between atoms: _325  and  _328
REMARK  139  A    between atoms: _328  and  _329
REMARK  140  A    between atoms: _329  and  _330
REMARK  141  A    between atoms: _335  and  _337
REMARK  142  A    between atoms: _337  and  _338
REMARK  143  A    between atoms: _337  and  _340
REMARK  144  A    between atoms: _340  and  _341
REMARK  145  A    between atoms: _341  and  _342
REMARK  146  A    between atoms: _347  and  _349
REMARK  147  A    between atoms: _349  and  _350
REMARK  148  A    between atoms: _349  and  _352
REMARK  149  A    between atoms: _352  and  _353
REMARK  150  A    between atoms: _359  and  _361
REMARK  151  A    between atoms: _361  and  _362
REMARK  152  A    between atoms: _361  and  _364
REMARK  153  A    between atoms: _366  and  _368
REMARK  154  A    between atoms: _368  and  _369
REMARK  155  A    between atoms: _368  and  _371
REMARK  156  A    between atoms: _371  and  _372
REMARK  157  A    between atoms: _372  and  _373
REMARK  158  A    between atoms: _375  and  _377
REMARK  159  A    between atoms: _377  and  _378
REMARK  160  A    between atoms: _377  and  _380
REMARK  161  A    between atoms: _380  and  _381
REMARK  162  A    between atoms: _381  and  _382
REMARK  163  A    between atoms: _381  and  _383
REMARK  164  A    between atoms: _386  and  _388
REMARK  165  A    between atoms: _388  and  _389
REMARK  166  A    between atoms: _391  and  _393
REMARK  167  A    between atoms: _393  and  _394
REMARK  168  A    between atoms: _393  and  _396
REMARK  169  A    between atoms: _396  and  _397
REMARK  170  A    between atoms: _400  and  _402
REMARK  171  A    between atoms: _402  and  _403
REMARK  172  A    between atoms: _402  and  _405
REMARK  173  A    between atoms: _405  and  _406
REMARK  174  A    between atoms: _409  and  _411
REMARK  175  A    between atoms: _411  and  _412
REMARK  176  A    between atoms: _411  and  _414
REMARK  177  A    between atoms: _414  and  _415
REMARK  178  A    between atoms: _417  and  _419
REMARK  179  A    between atoms: _419  and  _420
REMARK  180  A    between atoms: _419  and  _422
REMARK  181  A    between atoms: _422  and  _423
REMARK  182  A    between atoms: _433  and  _435
REMARK  183  A    between atoms: _435  and  _436
REMARK  184  A    between atoms: _435  and  _438
REMARK  185  A    between atoms: _438  and  _439
REMARK  186  A    between atoms: _439  and  _440
REMARK                            x       y       z     vdW  Elec       q    Type
REMARK                         _______ _______ _______ _____ _____    ______ ____
ROOT
ATOM      1  C   GLN A   2      -9.337 -35.320 -24.080  0.00  0.00    +0.241 C 
ATOM      2  O   GLN A   2      -9.541 -36.511 -24.368  0.00  0.00    -0.273 OA
ATOM      3  N   ASP A   3      -9.794 -34.292 -24.795  0.00  0.00    -0.297 N 
ATOM      4  H   ASP A   3      -9.634 -33.330 -24.435  0.00  0.00    +0.150 HD
ENDROOT
BRANCH   3   5
ATOM      5  CA  ASP A   3     -10.511 -34.451 -26.064  0.00  0.00    +0.160 C 
BRANCH   5   6
ATOM      6  C   ASP A   3      -9.564 -34.923 -27.166  0.00  0.00    +0.241 C 
ATOM      7  N   MET A   4      -9.457 -36.243 -27.279  0.00  0.00    -0.298 N 
ATOM      8  H   MET A   4     -10.016 -36.841 -26.637  0.00  0.00    +0.150 HD
ATOM      9  O   ASP A   3      -8.957 -34.114 -27.890  0.00  0.00    -0.273 OA
BRANCH   7  10
ATOM     10  CA  MET A   4      -8.596 -36.895 -28.257  0.00  0.00    +0.138 C 
BRANCH  10  11
ATOM     11  C   MET A   4      -8.936 -38.383 -28.351  0.00  0.00    +0.227 C 
ATOM     12  O   MET A   4      -9.752 -38.885 -27.571  0.00  0.00    -0.286 OA
ENDBRANCH  10  11
BRANCH  10  13
ATOM     13  CB  MET A   4      -7.129 -36.731 -27.850  0.00  0.00    +0.039 C 
BRANCH  13  14
ATOM     14  CG  MET A   4      -6.810 -37.280 -26.467  0.00  0.00    +0.060 C 
BRANCH  14  15
ATOM     15  SD  MET A   4      -5.073 -37.032 -26.061  0.00  0.00    -0.139 S 
ATOM     16  CE  MET A   4      -4.893 -38.135 -24.670  0.00  0.00    +0.069 C 
ENDBRANCH  14  15
ENDBRANCH  13  14
ENDBRANCH  10  13
ENDBRANCH   7  10
ENDBRANCH   5   6
BRANCH   5  17
ATOM     17  CB  ASP A   3     -11.186 -33.138 -26.464  0.00  0.00    +0.143 C 
BRANCH  17  18
ATOM     18  CG  ASP A   3     -11.821 -33.191 -27.849  0.00  0.00    +0.367 C 
ATOM     19  OD2 ASP A   3     -12.329 -34.255 -28.235  0.00  0.00    -0.246 OA
ATOM     20  OD1 ASP A   3     -11.823 -32.158 -28.554  0.00  0.00    -0.246 OA
ENDBRANCH  17  18
ENDBRANCH   5  17
ENDBRANCH   3   5
BRANCH   1  21
ATOM     21  CA  GLN A   2      -8.516 -34.951 -22.850  0.00  0.00    +0.149 C 
BRANCH  21  24
ATOM     22  C   ASP A   1      -9.942 -36.001 -21.180  0.00  0.00    +0.239 C 
ATOM     23  O   ASP A   1     -10.902 -35.295 -21.511  0.00  0.00    -0.274 OA
ATOM     24  N   GLN A   2      -8.746 -35.884 -21.747  0.00  0.00    -0.297 N 
ATOM     25  H   GLN A   2      -7.958 -36.467 -21.400  0.00  0.00    +0.150 HD
BRANCH  22  26
ATOM     26  CA  ASP A   1     -10.086 -37.081 -20.092  0.00  0.00    +0.156 C 
BRANCH  26  27
ATOM     27  N   ASP A   1      -8.906 -37.230 -19.243  0.00  0.00    -0.238 NA
ATOM     28  H   ASP A   1      -8.802 -36.612 -18.413  0.00  0.00    +0.142 HD
ENDBRANCH  26  27
BRANCH  26  29
ATOM     29  CB  ASP A   1     -11.315 -36.811 -19.222  0.00  0.00    +0.140 C 
BRANCH  29  30
ATOM     30  CG  ASP A   1     -12.624 -37.001 -19.972  0.00  0.00    +0.367 C 
ATOM     31  OD2 ASP A   1     -13.578 -36.267 -19.650  0.00  0.00    -0.246 OA
ATOM     32  OD1 ASP A   1     -12.705 -37.880 -20.865  0.00  0.00    -0.246 OA
ENDBRANCH  29  30
ENDBRANCH  26  29
ENDBRANCH  22  26
ENDBRANCH  21  24
BRANCH  21  33
ATOM     33  CB  GLN A   2      -7.036 -34.901 -23.231  0.00  0.00    +0.039 C 
BRANCH  33  34
ATOM     34  CG  GLN A   2      -6.138 -34.255 -22.190  0.00  0.00    +0.087 C 
BRANCH  34  35
ATOM     35  CD  GLN A   2      -5.562 -35.243 -21.188  0.00  0.00    +0.219 C 
ATOM     36  NE2 GLN A   2      -4.691 -34.750 -20.318  0.00  0.00    -0.329 N 
ATOM     37 HE21 GLN A   2      -4.257 -35.373 -19.607  0.00  0.00    +0.145 HD
ATOM     38 HE22 GLN A   2      -4.441 -33.741 -20.347  0.00  0.00    +0.145 HD
ATOM     39  OE1 GLN A   2      -5.892 -36.433 -21.196  0.00  0.00    -0.275 OA
ENDBRANCH  34  35
ENDBRANCH  33  34
ENDBRANCH  21  33
ENDBRANCH   1  21
TORSDOF 18
REMARK  Name = ../refined-set-2016/3t2q/3t2q_pocket.pdb
REMARK  186 active torsions:
REMARK  status: ('A' for Active; 'I' for Inactive)
REMARK    1  A    between atoms: _1  and  _3
REMARK    2  A    between atoms: _3  and  _4
REMARK    3  A    between atoms: _3  and  _6
REMARK    4  A    between atoms: _6  and  _7
REMARK    5  A    between atoms: _12  and  _13
REMARK    6  A    between atoms: _15  and  _17
REMARK    7  A    between atoms: _17  and  _18
REMARK    8  A    between atoms: _17  and  _20
REMARK    9  A    between atoms: _20  and  _21
REMARK   10  A    between atoms: _24  and  _26
REMARK   11  A    between atoms: _26  and  _27
REMARK   12  A    between atoms: _26  and  _29
REMARK   13  A    between atoms: _29  and  _30
REMARK   14  A    between atoms: _35  and  _37
REMARK   15  A    between atoms: _37  and  _38
REMARK   16  A    between atoms: _37  and  _40
REMARK   17  A    between atoms: _43  and  _45
REMARK   18  A    between atoms: _45  and  _46
REMARK   19  A    between atoms: _45  and  _48
REMARK   20  A    between atoms: _48  and  _49
REMARK   21  A    between atoms: _52  and  _54
REMARK   22  A    between atoms: _54  and  _55
REMARK   23  A    between atoms: _54  and  _57
REMARK   24  A    between atoms: _57  and  _58
REMARK   25  A    between atoms: _58  and  _59
REMARK   26  A    between atoms: _64  and  _66
REMARK   27  A    between atoms: _66  and  _67
REMARK   28  A    between atoms: _66  and  _69
REMARK   29  A    between atoms: _69  and  _70
REMARK   30  A    between atoms: _73  and  _75
REMARK   31  A    between atoms: _75  and  _76
REMARK   32  A    between atoms: _75  and  _78
REMARK   33  A    between atoms: _78  and  _79
REMARK   34  A    between atoms: _79  and  _80
REMARK   35  A    between atoms: _82  and  _84
REMARK   36  A    between atoms: _84  and  _85
REMARK   37  A    between atoms: _84  and  _87
REMARK   38  A    between atoms: _87  and  _88
REMARK   39  A    between atoms: _88  and  _89
REMARK   40  A    between atoms: _89  and  _90
REMARK   41  A    between atoms: _99  and  _101
REMARK   42  A    between atoms: _101  and  _102
REMARK   43  A    between atoms: _101  and  _104
REMARK   44  A    between atoms: _104  and  _105
REMARK   45  A    between atoms: _110  and  _112
REMARK   46  A    between atoms: _112  and  _113
REMARK   47  A    between atoms: _112  and  _115
REMARK   48  A    between atoms: _115  and  _116
REMARK   49  A    between atoms: _121  and  _123
REMARK   50  A    between atoms: _123  and  _124
REMARK   51  A    between atoms: _123  and  _126
REMARK   52  A    between atoms: _126  and  _127
REMARK   53  A    between atoms: _127  and  _128
REMARK   54  A    between atoms: _128  and  _129
REMARK   55  A    between atoms: _138  and  _140
REMARK   56  A    between atoms: _140  and  _141
REMARK   57  A    between atoms: _140  and  _143
REMARK   58  A    between atoms: _143  and  _144
REMARK   59  A    between atoms: _146  and  _148
REMARK   60  A    between atoms: _148  and  _149
REMARK   61  A    between atoms: _148  and  _151
REMARK   62  A    between atoms: _151  and  _152
REMARK   63  A    between atoms: _157  and  _159
REMARK   64  A    between atoms: _159  and  _160
REMARK   65  A    between atoms: _159  and  _162
REMARK   66  A    between atoms: _162  and  _163
REMARK   67  A    between atoms: _163  and  _164
REMARK   68  A    between atoms: _167  and  _169
REMARK   69  A    between atoms: _169  and  _170
REMARK   70  A    between atoms: _169  and  _172
REMARK   71  A    between atoms: _172  and  _173
REMARK   72  A    between atoms: _173  and  _174
REMARK   73  A    between atoms: _177  and  _179
REMARK   74  A    between atoms: _179  and  _180
REMARK   75  A    between atoms: _179  and  _182
REMARK   76  A    between atoms: _182  and  _183
REMARK   77  A    between atoms: _184  and  MG_443
REMARK   78  A    between atoms: _188  and  _190
REMARK   79  A    between atoms: _190  and  _191
REMARK   80  A    between atoms: _190  and  _193
REMARK   81  A    between atoms: _193  and  _194
REMARK   82  A    between atoms: _199  and  _201
REMARK   83  A    between atoms: _201  and  _202
REMARK   84  A    between atoms: _201  and  _204
REMARK   85  A    between atoms: _204  and  _205
REMARK   86  A    between atoms: _205  and  _206
REMARK   87  A    between atoms: _209  and  _211
REMARK   88  A    between atoms: _211  and  _212
REMARK   89  A    between atoms: _211  and  _214
REMARK   90  A    between atoms: _214  and  _215
REMARK   91  A    between atoms: _215  and  _216
REMARK   92  A    between atoms: _219  and  _221
REMARK   93  A    between atoms: _221  and  _222
REMARK   94  A    between atoms: _221  and  _224
REMARK   95  A    between atoms: _224  and  _225
REMARK   96  A    between atoms: _225  and  _226
REMARK   97  A    between atoms: _228  and  _230
REMARK   98  A    between atoms: _230  and  _231
REMARK   99  A    between atoms: _230  and  _233
REMARK  100  A    between atoms: _233  and  _234
REMARK  101  A    between atoms: _239  and  _240
REMARK  102  A    between atoms: _242  and  _244
REMARK  103  A    between atoms: _244  and  _245
REMARK  104  A    between atoms: _244  and  _247
REMARK  105  A    between atoms: _247  and  _248
REMARK  106  A    between atoms: _248  and  _249
REMARK  107  A    between atoms: _249  and  _250
REMARK  108  A    between atoms: _250  and  _251
REMARK  109  A    between atoms: _255  and  _257
REMARK  110  A    between atoms: _257  and  _258
REMARK  111  A    between atoms: _257  and  _260
REMARK  112  A    between atoms: _262  and  _264
REMARK  113  A    between atoms: _264  and  _265
REMARK  114  A    between atoms: _264  and  _267
REMARK  115  A    between atoms: _267  and  _268
REMARK  116  A    between atoms: _268  and  _269
REMARK  117  A    between atoms: _272  and  _274
REMARK  118  A    between atoms: _274  and  _275
REMARK  119  A    between atoms: _274  and  _277
REMARK  120  A    between atoms: _277  and  _278
REMARK  121  A    between atoms: _283  and  _285
REMARK  122  A    between atoms: _285  and  _286
REMARK  123  A    between atoms: _289  and  _291
REMARK  124  A    between atoms: _291  and  _292
REMARK  125  A    between atoms: _291  and  _294
REMARK  126  A    between atoms: _294  and  _295
REMARK  127  A    between atoms: _295  and  _296
REMARK  128  A    between atoms: _298  and  _300
REMARK  129  A    between atoms: _300  and  _301
REMARK  130  A    between atoms: _300  and  _303
REMARK  131  A    between atoms: _303  and  _304
REMARK  132  A    between atoms: _314  and  _316
REMARK  133  A    between atoms: _316  and  _317
REMARK  134  A    between atoms: _316  and  _319
REMARK  135  A    between atoms: _319  and  _320
REMARK  136  A    between atoms: _323  and  _325
REMARK  137  A    between atoms: _325  and  _326
REMARK  138  A    between atoms: _325  and  _328
REMARK  139  A    between atoms: _328  and  _329
REMARK  140  A    between atoms: _329  and  _330
REMARK  141  A    between atoms: _335  and  _337
REMARK  142  A    between atoms: _337  and  _338
REMARK  143  A    between atoms: _337  and  _340
REMARK  144  A    between atoms: _340  and  _341
REMARK  145  A    between atoms: _341  and  _342
REMARK  146  A    between atoms: _347  and  _349
REMARK  147  A    between atoms: _349  and  _350
REMARK  148  A    between atoms: _349  and  _352
REMARK  149  A    between atoms: _352  and  _353
REMARK  150  A    between atoms: _359  and  _361
REMARK  151  A    between atoms: _361  and  _362
REMARK  152  A    between atoms: _361  and  _364
REMARK  153  A    between atoms: _366  and  _368
REMARK  154  A    between atoms: _368  and  _369
REMARK  155  A    between atoms: _368  and  _371
REMARK  156  A    between atoms: _371  and  _372
REMARK  157  A    between atoms: _372  and  _373
REMARK  158  A    between atoms: _375  and  _377
REMARK  159  A    between atoms: _377  and  _378
REMARK  160  A    between atoms: _377  and  _380
REMARK  161  A    between atoms: _380  and  _381
REMARK  162  A    between atoms: _381  and  _382
REMARK  163  A    between atoms: _381  and  _383
REMARK  164  A    between atoms: _386  and  _388
REMARK  165  A    between atoms: _388  and  _389
REMARK  166  A    between atoms: _391  and  _393
REMARK  167  A    between atoms: _393  and  _394
REMARK  168  A    between atoms: _393  and  _396
REMARK  169  A    between atoms: _396  and  _397
REMARK  170  A    between atoms: _400  and  _402
REMARK  171  A    between atoms: _402  and  _403
REMARK  172  A    between atoms: _402  and  _405
REMARK  173  A    between atoms: _405  and  _406
REMARK  174  A    between atoms: _409  and  _411
REMARK  175  A    between atoms: _411  and  _412
REMARK  176  A    between atoms: _411  and  _414
REMARK  177  A    between atoms: _414  and  _415
REMARK  178  A    between atoms: _417  and  _419
REMARK  179  A    between atoms: _419  and  _420
REMARK  180  A    between atoms: _419  and  _422
REMARK  181  A    between atoms: _422  and  _423
REMARK  182  A    between atoms: _433  and  _435
REMARK  183  A    between atoms: _435  and  _436
REMARK  184  A    between atoms: _435  and  _438
REMARK  185  A    between atoms: _438  and  _439
REMARK  186  A    between atoms: _439  and  _440
REMARK                            x       y       z     vdW  Elec       q    Type
REMARK                         _______ _______ _______ _____ _____    ______ ____
ROOT
ATOM      1  NE  ARG A   1     -10.656 -39.428 -24.806  0.00  0.00    -0.265 N 
ATOM      2  CZ  ARG A   1     -11.257 -38.976 -23.712  0.00  0.00    +0.342 C 
ATOM      3  NH2 ARG A   1     -11.009 -39.537 -22.532  0.00  0.00    -0.292 N 
ATOM      4 HH21 ARG A   1     -11.482 -39.180 -21.677  0.00  0.00    +0.255 HD
ATOM      5 HH22 ARG A   1     -10.342 -40.332 -22.464  0.00  0.00    +0.255 HD
ATOM      6  NH1 ARG A   1     -12.107 -37.966 -23.800  0.00  0.00    -0.292 N 
ATOM      7 HH11 ARG A   1     -12.580 -37.609 -22.946  0.00  0.00    +0.255 HD
ATOM      8 HH12 ARG A   1     -12.302 -37.529 -24.724  0.00  0.00    +0.255 HD
ATOM      9  HE  ARG A   1     -10.868 -38.961 -25.711  0.00  0.00    +0.259 HD
ENDROOT
BRANCH   1  10
ATOM     10  CD  ARG A   1      -9.715 -40.543 -24.812  0.00  0.00    +0.174 C 
BRANCH  10  11
ATOM     11  CG  ARG A   1     -10.427 -41.873 -25.082  0.00  0.00    +0.045 C 
BRANCH  11  12
ATOM     12  CB  ARG A   1      -9.464 -43.043 -25.339  0.00  0.00    +0.029 C 
BRANCH  12  13
ATOM     13  CA  ARG A   1      -8.271 -42.742 -26.256  0.00  0.00    +0.133 C 
BRANCH  13  14
ATOM     14  N   ARG A   1      -8.683 -41.975 -27.423  0.00  0.00    -0.239 NA
ATOM     15  H   ARG A   1      -9.647 -42.091 -27.795  0.00  0.00    +0.142 HD
ENDBRANCH  13  14
BRANCH  13  16
ATOM     16  C   ARG A   1      -7.590 -44.031 -26.723  0.00  0.00    +0.224 C 
ATOM     17  O   ARG A   1      -8.243 -44.914 -27.288  0.00  0.00    -0.287 OA
ENDBRANCH  13  16
ENDBRANCH  12  13
ENDBRANCH  11  12
ENDBRANCH  10  11
ENDBRANCH   1  10
TORSDOF 6
REMARK  Name = ../refined-set-2016/3t2q/3t2q_pocket.pdb
REMARK  186 active torsions:
REMARK  status: ('A' for Active; 'I' for Inactive)
REMARK    1  A    between atoms: _1  and  _3
REMARK    2  A    between atoms: _3  and  _4
REMARK    3  A    between atoms: _3  and  _6
REMARK    4  A    between atoms: _6  and  _7
REMARK    5  A    between atoms: _12  and  _13
REMARK    6  A    between atoms: _15  and  _17
REMARK    7  A    between atoms: _17  and  _18
REMARK    8  A    between atoms: _17  and  _20
REMARK    9  A    between atoms: _20  and  _21
REMARK   10  A    between atoms: _24  and  _26
REMARK   11  A    between atoms: _26  and  _27
REMARK   12  A    between atoms: _26  and  _29
REMARK   13  A    between atoms: _29  and  _30
REMARK   14  A    between atoms: _35  and  _37
REMARK   15  A    between atoms: _37  and  _38
REMARK   16  A    between atoms: _37  and  _40
REMARK   17  A    between atoms: _43  and  _45
REMARK   18  A    between atoms: _45  and  _46
REMARK   19  A    between atoms: _45  and  _48
REMARK   20  A    between atoms: _48  and  _49
REMARK   21  A    between atoms: _52  and  _54
REMARK   22  A    between atoms: _54  and  _55
REMARK   23  A    between atoms: _54  and  _57
REMARK   24  A    between atoms: _57  and  _58
REMARK   25  A    between atoms: _58  and  _59
REMARK   26  A    between atoms: _64  and  _66
REMARK   27  A    between atoms: _66  and  _67
REMARK   28  A    between atoms: _66  and  _69
REMARK   29  A    between atoms: _69  and  _70
REMARK   30  A    between atoms: _73  and  _75
REMARK   31  A    between atoms: _75  and  _76
REMARK   32  A    between atoms: _75  and  _78
REMARK   33  A    between atoms: _78  and  _79
REMARK   34  A    between atoms: _79  and  _80
REMARK   35  A    between atoms: _82  and  _84
REMARK   36  A    between atoms: _84  and  _85
REMARK   37  A    between atoms: _84  and  _87
REMARK   38  A    between atoms: _87  and  _88
REMARK   39  A    between atoms: _88  and  _89
REMARK   40  A    between atoms: _89  and  _90
REMARK   41  A    between atoms: _99  and  _101
REMARK   42  A    between atoms: _101  and  _102
REMARK   43  A    between atoms: _101  and  _104
REMARK   44  A    between atoms: _104  and  _105
REMARK   45  A    between atoms: _110  and  _112
REMARK   46  A    between atoms: _112  and  _113
REMARK   47  A    between atoms: _112  and  _115
REMARK   48  A    between atoms: _115  and  _116
REMARK   49  A    between atoms: _121  and  _123
REMARK   50  A    between atoms: _123  and  _124
REMARK   51  A    between atoms: _123  and  _126
REMARK   52  A    between atoms: _126  and  _127
REMARK   53  A    between atoms: _127  and  _128
REMARK   54  A    between atoms: _128  and  _129
REMARK   55  A    between atoms: _138  and  _140
REMARK   56  A    between atoms: _140  and  _141
REMARK   57  A    between atoms: _140  and  _143
REMARK   58  A    between atoms: _143  and  _144
REMARK   59  A    between atoms: _146  and  _148
REMARK   60  A    between atoms: _148  and  _149
REMARK   61  A    between atoms: _148  and  _151
REMARK   62  A    between atoms: _151  and  _152
REMARK   63  A    between atoms: _157  and  _159
REMARK   64  A    between atoms: _159  and  _160
REMARK   65  A    between atoms: _159  and  _162
REMARK   66  A    between atoms: _162  and  _163
REMARK   67  A    between atoms: _163  and  _164
REMARK   68  A    between atoms: _167  and  _169
REMARK   69  A    between atoms: _169  and  _170
REMARK   70  A    between atoms: _169  and  _172
REMARK   71  A    between atoms: _172  and  _173
REMARK   72  A    between atoms: _173  and  _174
REMARK   73  A    between atoms: _177  and  _179
REMARK   74  A    between atoms: _179  and  _180
REMARK   75  A    between atoms: _179  and  _182
REMARK   76  A    between atoms: _182  and  _183
REMARK   77  A    between atoms: _184  and  MG_443
REMARK   78  A    between atoms: _188  and  _190
REMARK   79  A    between atoms: _190  and  _191
REMARK   80  A    between atoms: _190  and  _193
REMARK   81  A    between atoms: _193  and  _194
REMARK   82  A    between atoms: _199  and  _201
REMARK   83  A    between atoms: _201  and  _202
REMARK   84  A    between atoms: _201  and  _204
REMARK   85  A    between atoms: _204  and  _205
REMARK   86  A    between atoms: _205  and  _206
REMARK   87  A    between atoms: _209  and  _211
REMARK   88  A    between atoms: _211  and  _212
REMARK   89  A    between atoms: _211  and  _214
REMARK   90  A    between atoms: _214  and  _215
REMARK   91  A    between atoms: _215  and  _216
REMARK   92  A    between atoms: _219  and  _221
REMARK   93  A    between atoms: _221  and  _222
REMARK   94  A    between atoms: _221  and  _224
REMARK   95  A    between atoms: _224  and  _225
REMARK   96  A    between atoms: _225  and  _226
REMARK   97  A    between atoms: _228  and  _230
REMARK   98  A    between atoms: _230  and  _231
REMARK   99  A    between atoms: _230  and  _233
REMARK  100  A    between atoms: _233  and  _234
REMARK  101  A    between atoms: _239  and  _240
REMARK  102  A    between atoms: _242  and  _244
REMARK  103  A    between atoms: _244  and  _245
REMARK  104  A    between atoms: _244  and  _247
REMARK  105  A    between atoms: _247  and  _248
REMARK  106  A    between atoms: _248  and  _249
REMARK  107  A    between atoms: _249  and  _250
REMARK  108  A    between atoms: _250  and  _251
REMARK  109  A    between atoms: _255  and  _257
REMARK  110  A    between atoms: _257  and  _258
REMARK  111  A    between atoms: _257  and  _260
REMARK  112  A    between atoms: _262  and  _264
REMARK  113  A    between atoms: _264  and  _265
REMARK  114  A    between atoms: _264  and  _267
REMARK  115  A    between atoms: _267  and  _268
REMARK  116  A    between atoms: _268  and  _269
REMARK  117  A    between atoms: _272  and  _274
REMARK  118  A    between atoms: _274  and  _275
REMARK  119  A    between atoms: _274  and  _277
REMARK  120  A    between atoms: _277  and  _278
REMARK  121  A    between atoms: _283  and  _285
REMARK  122  A    between atoms: _285  and  _286
REMARK  123  A    between atoms: _289  and  _291
REMARK  124  A    between atoms: _291  and  _292
REMARK  125  A    between atoms: _291  and  _294
REMARK  126  A    between atoms: _294  and  _295
REMARK  127  A    between atoms: _295  and  _296
REMARK  128  A    between atoms: _298  and  _300
REMARK  129  A    between atoms: _300  and  _301
REMARK  130  A    between atoms: _300  and  _303
REMARK  131  A    between atoms: _303  and  _304
REMARK  132  A    between atoms: _314  and  _316
REMARK  133  A    between atoms: _316  and  _317
REMARK  134  A    between atoms: _316  and  _319
REMARK  135  A    between atoms: _319  and  _320
REMARK  136  A    between atoms: _323  and  _325
REMARK  137  A    between atoms: _325  and  _326
REMARK  138  A    between atoms: _325  and  _328
REMARK  139  A    between atoms: _328  and  _329
REMARK  140  A    between atoms: _329  and  _330
REMARK  141  A    between atoms: _335  and  _337
REMARK  142  A    between atoms: _337  and  _338
REMARK  143  A    between atoms: _337  and  _340
REMARK  144  A    between atoms: _340  and  _341
REMARK  145  A    between atoms: _341  and  _342
REMARK  146  A    between atoms: _347  and  _349
REMARK  147  A    between atoms: _349  and  _350
REMARK  148  A    between atoms: _349  and  _352
REMARK  149  A    between atoms: _352  and  _353
REMARK  150  A    between atoms: _359  and  _361
REMARK  151  A    between atoms: _361  and  _362
REMARK  152  A    between atoms: _361  and  _364
REMARK  153  A    between atoms: _366  and  _368
REMARK  154  A    between atoms: _368  and  _369
REMARK  155  A    between atoms: _368  and  _371
REMARK  156  A    between atoms: _371  and  _372
REMARK  157  A    between atoms: _372  and  _373
REMARK  158  A    between atoms: _375  and  _377
REMARK  159  A    between atoms: _377  and  _378
REMARK  160  A    between atoms: _377  and  _380
REMARK  161  A    between atoms: _380  and  _381
REMARK  162  A    between atoms: _381  and  _382
REMARK  163  A    between atoms: _381  and  _383
REMARK  164  A    between atoms: _386  and  _388
REMARK  165  A    between atoms: _388  and  _389
REMARK  166  A    between atoms: _391  and  _393
REMARK  167  A    between atoms: _393  and  _394
REMARK  168  A    between atoms: _393  and  _396
REMARK  169  A    between atoms: _396  and  _397
REMARK  170  A    between atoms: _400  and  _402
REMARK  171  A    between atoms: _402  and  _403
REMARK  172  A    between atoms: _402  and  _405
REMARK  173  A    between atoms: _405  and  _406
REMARK  174  A    between atoms: _409  and  _411
REMARK  175  A    between atoms: _411  and  _412
REMARK  176  A    between atoms: _411  and  _414
REMARK  177  A    between atoms: _414  and  _415
REMARK  178  A    between atoms: _417  and  _419
REMARK  179  A    between atoms: _419  and  _420
REMARK  180  A    between atoms: _419  and  _422
REMARK  181  A    between atoms: _422  and  _423
REMARK  182  A    between atoms: _433  and  _435
REMARK  183  A    between atoms: _435  and  _436
REMARK  184  A    between atoms: _435  and  _438
REMARK  185  A    between atoms: _438  and  _439
REMARK  186  A    between atoms: _439  and  _440
REMARK                            x       y       z     vdW  Elec       q    Type
REMARK                         _______ _______ _______ _____ _____    ______ ____
ROOT
ATOM      1  CB  ASN A   1      -3.559 -26.045 -28.795  0.00  0.00    +0.110 C 
ENDROOT
BRANCH   1   2
ATOM      2  CG  ASN A   1      -3.951 -25.099 -27.694  0.00  0.00    +0.221 C 
ATOM      3  OD1 ASN A   1      -3.736 -25.382 -26.513  0.00  0.00    -0.275 OA
ATOM      4  ND2 ASN A   1      -4.552 -23.965 -28.072  0.00  0.00    -0.329 N 
ATOM      5 HD21 ASN A   1      -4.860 -23.276 -27.356  0.00  0.00    +0.145 HD
ATOM      6 HD22 ASN A   1      -4.711 -23.772 -29.082  0.00  0.00    +0.145 HD
ENDBRANCH   1   2
BRANCH   1   7
ATOM      7  CA  ASN A   1      -2.141 -25.815 -29.283  0.00  0.00    +0.142 C 
BRANCH   7   8
ATOM      8  N   ASN A   1      -2.053 -24.568 -30.038  0.00  0.00    -0.239 NA
ATOM      9  H   ASN A   1      -2.928 -24.097 -30.346  0.00  0.00    +0.142 HD
ENDBRANCH   7   8
BRANCH   7  10
ATOM     10  C   ASN A   1      -1.736 -26.976 -30.179  0.00  0.00    +0.225 C 
ATOM     11  O   ASN A   1      -2.138 -27.042 -31.358  0.00  0.00    -0.287 OA
ENDBRANCH   7  10
ENDBRANCH   1   7
TORSDOF 4
REMARK  Name = ../refined-set-2016/3t2q/3t2q_pocket.pdb
REMARK  186 active torsions:
REMARK  status: ('A' for Active; 'I' for Inactive)
REMARK    1  A    between atoms: _1  and  _3
REMARK    2  A    between atoms: _3  and  _4
REMARK    3  A    between atoms: _3  and  _6
REMARK    4  A    between atoms: _6  and  _7
REMARK    5  A    between atoms: _12  and  _13
REMARK    6  A    between atoms: _15  and  _17
REMARK    7  A    between atoms: _17  and  _18
REMARK    8  A    between atoms: _17  and  _20
REMARK    9  A    between atoms: _20  and  _21
REMARK   10  A    between atoms: _24  and  _26
REMARK   11  A    between atoms: _26  and  _27
REMARK   12  A    between atoms: _26  and  _29
REMARK   13  A    between atoms: _29  and  _30
REMARK   14  A    between atoms: _35  and  _37
REMARK   15  A    between atoms: _37  and  _38
REMARK   16  A    between atoms: _37  and  _40
REMARK   17  A    between atoms: _43  and  _45
REMARK   18  A    between atoms: _45  and  _46
REMARK   19  A    between atoms: _45  and  _48
REMARK   20  A    between atoms: _48  and  _49
REMARK   21  A    between atoms: _52  and  _54
REMARK   22  A    between atoms: _54  and  _55
REMARK   23  A    between atoms: _54  and  _57
REMARK   24  A    between atoms: _57  and  _58
REMARK   25  A    between atoms: _58  and  _59
REMARK   26  A    between atoms: _64  and  _66
REMARK   27  A    between atoms: _66  and  _67
REMARK   28  A    between atoms: _66  and  _69
REMARK   29  A    between atoms: _69  and  _70
REMARK   30  A    between atoms: _73  and  _75
REMARK   31  A    between atoms: _75  and  _76
REMARK   32  A    between atoms: _75  and  _78
REMARK   33  A    between atoms: _78  and  _79
REMARK   34  A    between atoms: _79  and  _80
REMARK   35  A    between atoms: _82  and  _84
REMARK   36  A    between atoms: _84  and  _85
REMARK   37  A    between atoms: _84  and  _87
REMARK   38  A    between atoms: _87  and  _88
REMARK   39  A    between atoms: _88  and  _89
REMARK   40  A    between atoms: _89  and  _90
REMARK   41  A    between atoms: _99  and  _101
REMARK   42  A    between atoms: _101  and  _102
REMARK   43  A    between atoms: _101  and  _104
REMARK   44  A    between atoms: _104  and  _105
REMARK   45  A    between atoms: _110  and  _112
REMARK   46  A    between atoms: _112  and  _113
REMARK   47  A    between atoms: _112  and  _115
REMARK   48  A    between atoms: _115  and  _116
REMARK   49  A    between atoms: _121  and  _123
REMARK   50  A    between atoms: _123  and  _124
REMARK   51  A    between atoms: _123  and  _126
REMARK   52  A    between atoms: _126  and  _127
REMARK   53  A    between atoms: _127  and  _128
REMARK   54  A    between atoms: _128  and  _129
REMARK   55  A    between atoms: _138  and  _140
REMARK   56  A    between atoms: _140  and  _141
REMARK   57  A    between atoms: _140  and  _143
REMARK   58  A    between atoms: _143  and  _144
REMARK   59  A    between atoms: _146  and  _148
REMARK   60  A    between atoms: _148  and  _149
REMARK   61  A    between atoms: _148  and  _151
REMARK   62  A    between atoms: _151  and  _152
REMARK   63  A    between atoms: _157  and  _159
REMARK   64  A    between atoms: _159  and  _160
REMARK   65  A    between atoms: _159  and  _162
REMARK   66  A    between atoms: _162  and  _163
REMARK   67  A    between atoms: _163  and  _164
REMARK   68  A    between atoms: _167  and  _169
REMARK   69  A    between atoms: _169  and  _170
REMARK   70  A    between atoms: _169  and  _172
REMARK   71  A    between atoms: _172  and  _173
REMARK   72  A    between atoms: _173  and  _174
REMARK   73  A    between atoms: _177  and  _179
REMARK   74  A    between atoms: _179  and  _180
REMARK   75  A    between atoms: _179  and  _182
REMARK   76  A    between atoms: _182  and  _183
REMARK   77  A    between atoms: _184  and  MG_443
REMARK   78  A    between atoms: _188  and  _190
REMARK   79  A    between atoms: _190  and  _191
REMARK   80  A    between atoms: _190  and  _193
REMARK   81  A    between atoms: _193  and  _194
REMARK   82  A    between atoms: _199  and  _201
REMARK   83  A    between atoms: _201  and  _202
REMARK   84  A    between atoms: _201  and  _204
REMARK   85  A    between atoms: _204  and  _205
REMARK   86  A    between atoms: _205  and  _206
REMARK   87  A    between atoms: _209  and  _211
REMARK   88  A    between atoms: _211  and  _212
REMARK   89  A    between atoms: _211  and  _214
REMARK   90  A    between atoms: _214  and  _215
REMARK   91  A    between atoms: _215  and  _216
REMARK   92  A    between atoms: _219  and  _221
REMARK   93  A    between atoms: _221  and  _222
REMARK   94  A    between atoms: _221  and  _224
REMARK   95  A    between atoms: _224  and  _225
REMARK   96  A    between atoms: _225  and  _226
REMARK   97  A    between atoms: _228  and  _230
REMARK   98  A    between atoms: _230  and  _231
REMARK   99  A    between atoms: _230  and  _233
REMARK  100  A    between atoms: _233  and  _234
REMARK  101  A    between atoms: _239  and  _240
REMARK  102  A    between atoms: _242  and  _244
REMARK  103  A    between atoms: _244  and  _245
REMARK  104  A    between atoms: _244  and  _247
REMARK  105  A    between atoms: _247  and  _248
REMARK  106  A    between atoms: _248  and  _249
REMARK  107  A    between atoms: _249  and  _250
REMARK  108  A    between atoms: _250  and  _251
REMARK  109  A    between atoms: _255  and  _257
REMARK  110  A    between atoms: _257  and  _258
REMARK  111  A    between atoms: _257  and  _260
REMARK  112  A    between atoms: _262  and  _264
REMARK  113  A    between atoms: _264  and  _265
REMARK  114  A    between atoms: _264  and  _267
REMARK  115  A    between atoms: _267  and  _268
REMARK  116  A    between atoms: _268  and  _269
REMARK  117  A    between atoms: _272  and  _274
REMARK  118  A    between atoms: _274  and  _275
REMARK  119  A    between atoms: _274  and  _277
REMARK  120  A    between atoms: _277  and  _278
REMARK  121  A    between atoms: _283  and  _285
REMARK  122  A    between atoms: _285  and  _286
REMARK  123  A    between atoms: _289  and  _291
REMARK  124  A    between atoms: _291  and  _292
REMARK  125  A    between atoms: _291  and  _294
REMARK  126  A    between atoms: _294  and  _295
REMARK  127  A    between atoms: _295  and  _296
REMARK  128  A    between atoms: _298  and  _300
REMARK  129  A    between atoms: _300  and  _301
REMARK  130  A    between atoms: _300  and  _303
REMARK  131  A    between atoms: _303  and  _304
REMARK  132  A    between atoms: _314  and  _316
REMARK  133  A    between atoms: _316  and  _317
REMARK  134  A    between atoms: _316  and  _319
REMARK  135  A    between atoms: _319  and  _320
REMARK  136  A    between atoms: _323  and  _325
REMARK  137  A    between atoms: _325  and  _326
REMARK  138  A    between atoms: _325  and  _328
REMARK  139  A    between atoms: _328  and  _329
REMARK  140  A    between atoms: _329  and  _330
REMARK  141  A    between atoms: _335  and  _337
REMARK  142  A    between atoms: _337  and  _338
REMARK  143  A    between atoms: _337  and  _340
REMARK  144  A    between atoms: _340  and  _341
REMARK  145  A    between atoms: _341  and  _342
REMARK  146  A    between atoms: _347  and  _349
REMARK  147  A    between atoms: _349  and  _350
REMARK  148  A    between atoms: _349  and  _352
REMARK  149  A    between atoms: _352  and  _353
REMARK  150  A    between atoms: _359  and  _361
REMARK  151  A    between atoms: _361  and  _362
REMARK  152  A    between atoms: _361  and  _364
REMARK  153  A    between atoms: _366  and  _368
REMARK  154  A    between atoms: _368  and  _369
REMARK  155  A    between atoms: _368  and  _371
REMARK  156  A    between atoms: _371  and  _372
REMARK  157  A    between atoms: _372  and  _373
REMARK  158  A    between atoms: _375  and  _377
REMARK  159  A    between atoms: _377  and  _378
REMARK  160  A    between atoms: _377  and  _380
REMARK  161  A    between atoms: _380  and  _381
REMARK  162  A    between atoms: _381  and  _382
REMARK  163  A    between atoms: _381  and  _383
REMARK  164  A    between atoms: _386  and  _388
REMARK  165  A    between atoms: _388  and  _389
REMARK  166  A    between atoms: _391  and  _393
REMARK  167  A    between atoms: _393  and  _394
REMARK  168  A    between atoms: _393  and  _396
REMARK  169  A    between atoms: _396  and  _397
REMARK  170  A    between atoms: _400  and  _402
REMARK  171  A    between atoms: _402  and  _403
REMARK  172  A    between atoms: _402  and  _405
REMARK  173  A    between atoms: _405  and  _406
REMARK  174  A    between atoms: _409  and  _411
REMARK  175  A    between atoms: _411  and  _412
REMARK  176  A    between atoms: _411  and  _414
REMARK  177  A    between atoms: _414  and  _415
REMARK  178  A    between atoms: _417  and  _419
REMARK  179  A    between atoms: _419  and  _420
REMARK  180  A    between atoms: _419  and  _422
REMARK  181  A    between atoms: _422  and  _423
REMARK  182  A    between atoms: _433  and  _435
REMARK  183  A    between atoms: _435  and  _436
REMARK  184  A    between atoms: _435  and  _438
REMARK  185  A    between atoms: _438  and  _439
REMARK  186  A    between atoms: _439  and  _440
REMARK                            x       y       z     vdW  Elec       q    Type
REMARK                         _______ _______ _______ _____ _____    ______ ____
ROOT
ATOM      1  CB  HIS A   1      -2.807 -33.206 -29.862  0.00  0.00    +0.072 C 
ENDROOT
BRANCH   1   2
ATOM      2  CG  HIS A   1      -3.885 -33.014 -28.850  0.00  0.00    +0.082 A 
ATOM      3  ND1 HIS A   1      -3.893 -33.675 -27.639  0.00  0.00    -0.227 NA
ATOM      4  CE1 HIS A   1      -4.971 -33.323 -26.959  0.00  0.00    +0.199 A 
ATOM      5  NE2 HIS A   1      -5.658 -32.456 -27.684  0.00  0.00    -0.221 NA
ATOM      6  CD2 HIS A   1      -4.999 -32.246 -28.872  0.00  0.00    +0.115 A 
ENDBRANCH   1   2
BRANCH   1   7
ATOM      7  CA  HIS A   1      -1.473 -32.582 -29.475  0.00  0.00    +0.139 C 
BRANCH   7   8
ATOM      8  N   HIS A   1      -1.428 -31.203 -29.955  0.00  0.00    -0.239 NA
ATOM      9  H   HIS A   1      -2.148 -30.901 -30.642  0.00  0.00    +0.142 HD
ENDBRANCH   7   8
BRANCH   7  10
ATOM     10  C   HIS A   1      -0.388 -33.418 -30.138  0.00  0.00    +0.224 C 
ATOM     11  O   HIS A   1       0.059 -33.095 -31.232  0.00  0.00    -0.287 OA
ENDBRANCH   7  10
ENDBRANCH   1   7
TORSDOF 4
REMARK  Name = ../refined-set-2016/3t2q/3t2q_pocket.pdb
REMARK  186 active torsions:
REMARK  status: ('A' for Active; 'I' for Inactive)
REMARK    1  A    between atoms: _1  and  _3
REMARK    2  A    between atoms: _3  and  _4
REMARK    3  A    between atoms: _3  and  _6
REMARK    4  A    between atoms: _6  and  _7
REMARK    5  A    between atoms: _12  and  _13
REMARK    6  A    between atoms: _15  and  _17
REMARK    7  A    between atoms: _17  and  _18
REMARK    8  A    between atoms: _17  and  _20
REMARK    9  A    between atoms: _20  and  _21
REMARK   10  A    between atoms: _24  and  _26
REMARK   11  A    between atoms: _26  and  _27
REMARK   12  A    between atoms: _26  and  _29
REMARK   13  A    between atoms: _29  and  _30
REMARK   14  A    between atoms: _35  and  _37
REMARK   15  A    between atoms: _37  and  _38
REMARK   16  A    between atoms: _37  and  _40
REMARK   17  A    between atoms: _43  and  _45
REMARK   18  A    between atoms: _45  and  _46
REMARK   19  A    between atoms: _45  and  _48
REMARK   20  A    between atoms: _48  and  _49
REMARK   21  A    between atoms: _52  and  _54
REMARK   22  A    between atoms: _54  and  _55
REMARK   23  A    between atoms: _54  and  _57
REMARK   24  A    between atoms: _57  and  _58
REMARK   25  A    between atoms: _58  and  _59
REMARK   26  A    between atoms: _64  and  _66
REMARK   27  A    between atoms: _66  and  _67
REMARK   28  A    between atoms: _66  and  _69
REMARK   29  A    between atoms: _69  and  _70
REMARK   30  A    between atoms: _73  and  _75
REMARK   31  A    between atoms: _75  and  _76
REMARK   32  A    between atoms: _75  and  _78
REMARK   33  A    between atoms: _78  and  _79
REMARK   34  A    between atoms: _79  and  _80
REMARK   35  A    between atoms: _82  and  _84
REMARK   36  A    between atoms: _84  and  _85
REMARK   37  A    between atoms: _84  and  _87
REMARK   38  A    between atoms: _87  and  _88
REMARK   39  A    between atoms: _88  and  _89
REMARK   40  A    between atoms: _89  and  _90
REMARK   41  A    between atoms: _99  and  _101
REMARK   42  A    between atoms: _101  and  _102
REMARK   43  A    between atoms: _101  and  _104
REMARK   44  A    between atoms: _104  and  _105
REMARK   45  A    between atoms: _110  and  _112
REMARK   46  A    between atoms: _112  and  _113
REMARK   47  A    between atoms: _112  and  _115
REMARK   48  A    between atoms: _115  and  _116
REMARK   49  A    between atoms: _121  and  _123
REMARK   50  A    between atoms: _123  and  _124
REMARK   51  A    between atoms: _123  and  _126
REMARK   52  A    between atoms: _126  and  _127
REMARK   53  A    between atoms: _127  and  _128
REMARK   54  A    between atoms: _128  and  _129
REMARK   55  A    between atoms: _138  and  _140
REMARK   56  A    between atoms: _140  and  _141
REMARK   57  A    between atoms: _140  and  _143
REMARK   58  A    between atoms: _143  and  _144
REMARK   59  A    between atoms: _146  and  _148
REMARK   60  A    between atoms: _148  and  _149
REMARK   61  A    between atoms: _148  and  _151
REMARK   62  A    between atoms: _151  and  _152
REMARK   63  A    between atoms: _157  and  _159
REMARK   64  A    between atoms: _159  and  _160
REMARK   65  A    between atoms: _159  and  _162
REMARK   66  A    between atoms: _162  and  _163
REMARK   67  A    between atoms: _163  and  _164
REMARK   68  A    between atoms: _167  and  _169
REMARK   69  A    between atoms: _169  and  _170
REMARK   70  A    between atoms: _169  and  _172
REMARK   71  A    between atoms: _172  and  _173
REMARK   72  A    between atoms: _173  and  _174
REMARK   73  A    between atoms: _177  and  _179
REMARK   74  A    between atoms: _179  and  _180
REMARK   75  A    between atoms: _179  and  _182
REMARK   76  A    between atoms: _182  and  _183
REMARK   77  A    between atoms: _184  and  MG_443
REMARK   78  A    between atoms: _188  and  _190
REMARK   79  A    between atoms: _190  and  _191
REMARK   80  A    between atoms: _190  and  _193
REMARK   81  A    between atoms: _193  and  _194
REMARK   82  A    between atoms: _199  and  _201
REMARK   83  A    between atoms: _201  and  _202
REMARK   84  A    between atoms: _201  and  _204
REMARK   85  A    between atoms: _204  and  _205
REMARK   86  A    between atoms: _205  and  _206
REMARK   87  A    between atoms: _209  and  _211
REMARK   88  A    between atoms: _211  and  _212
REMARK   89  A    between atoms: _211  and  _214
REMARK   90  A    between atoms: _214  and  _215
REMARK   91  A    between atoms: _215  and  _216
REMARK   92  A    between atoms: _219  and  _221
REMARK   93  A    between atoms: _221  and  _222
REMARK   94  A    between atoms: _221  and  _224
REMARK   95  A    between atoms: _224  and  _225
REMARK   96  A    between atoms: _225  and  _226
REMARK   97  A    between atoms: _228  and  _230
REMARK   98  A    between atoms: _230  and  _231
REMARK   99  A    between atoms: _230  and  _233
REMARK  100  A    between atoms: _233  and  _234
REMARK  101  A    between atoms: _239  and  _240
REMARK  102  A    between atoms: _242  and  _244
REMARK  103  A    between atoms: _244  and  _245
REMARK  104  A    between atoms: _244  and  _247
REMARK  105  A    between atoms: _247  and  _248
REMARK  106  A    between atoms: _248  and  _249
REMARK  107  A    between atoms: _249  and  _250
REMARK  108  A    between atoms: _250  and  _251
REMARK  109  A    between atoms: _255  and  _257
REMARK  110  A    between atoms: _257  and  _258
REMARK  111  A    between atoms: _257  and  _260
REMARK  112  A    between atoms: _262  and  _264
REMARK  113  A    between atoms: _264  and  _265
REMARK  114  A    between atoms: _264  and  _267
REMARK  115  A    between atoms: _267  and  _268
REMARK  116  A    between atoms: _268  and  _269
REMARK  117  A    between atoms: _272  and  _274
REMARK  118  A    between atoms: _274  and  _275
REMARK  119  A    between atoms: _274  and  _277
REMARK  120  A    between atoms: _277  and  _278
REMARK  121  A    between atoms: _283  and  _285
REMARK  122  A    between atoms: _285  and  _286
REMARK  123  A    between atoms: _289  and  _291
REMARK  124  A    between atoms: _291  and  _292
REMARK  125  A    between atoms: _291  and  _294
REMARK  126  A    between atoms: _294  and  _295
REMARK  127  A    between atoms: _295  and  _296
REMARK  128  A    between atoms: _298  and  _300
REMARK  129  A    between atoms: _300  and  _301
REMARK  130  A    between atoms: _300  and  _303
REMARK  131  A    between atoms: _303  and  _304
REMARK  132  A    between atoms: _314  and  _316
REMARK  133  A    between atoms: _316  and  _317
REMARK  134  A    between atoms: _316  and  _319
REMARK  135  A    between atoms: _319  and  _320
REMARK  136  A    between atoms: _323  and  _325
REMARK  137  A    between atoms: _325  and  _326
REMARK  138  A    between atoms: _325  and  _328
REMARK  139  A    between atoms: _328  and  _329
REMARK  140  A    between atoms: _329  and  _330
REMARK  141  A    between atoms: _335  and  _337
REMARK  142  A    between atoms: _337  and  _338
REMARK  143  A    between atoms: _337  and  _340
REMARK  144  A    between atoms: _340  and  _341
REMARK  145  A    between atoms: _341  and  _342
REMARK  146  A    between atoms: _347  and  _349
REMARK  147  A    between atoms: _349  and  _350
REMARK  148  A    between atoms: _349  and  _352
REMARK  149  A    between atoms: _352  and  _353
REMARK  150  A    between atoms: _359  and  _361
REMARK  151  A    between atoms: _361  and  _362
REMARK  152  A    between atoms: _361  and  _364
REMARK  153  A    between atoms: _366  and  _368
REMARK  154  A    between atoms: _368  and  _369
REMARK  155  A    between atoms: _368  and  _371
REMARK  156  A    between atoms: _371  and  _372
REMARK  157  A    between atoms: _372  and  _373
REMARK  158  A    between atoms: _375  and  _377
REMARK  159  A    between atoms: _377  and  _378
REMARK  160  A    between atoms: _377  and  _380
REMARK  161  A    between atoms: _380  and  _381
REMARK  162  A    between atoms: _381  and  _382
REMARK  163  A    between atoms: _381  and  _383
REMARK  164  A    between atoms: _386  and  _388
REMARK  165  A    between atoms: _388  and  _389
REMARK  166  A    between atoms: _391  and  _393
REMARK  167  A    between atoms: _393  and  _394
REMARK  168  A    between atoms: _393  and  _396
REMARK  169  A    between atoms: _396  and  _397
REMARK  170  A    between atoms: _400  and  _402
REMARK  171  A    between atoms: _402  and  _403
REMARK  172  A    between atoms: _402  and  _405
REMARK  173  A    between atoms: _405  and  _406
REMARK  174  A    between atoms: _409  and  _411
REMARK  175  A    between atoms: _411  and  _412
REMARK  176  A    between atoms: _411  and  _414
REMARK  177  A    between atoms: _414  and  _415
REMARK  178  A    between atoms: _417  and  _419
REMARK  179  A    between atoms: _419  and  _420
REMARK  180  A    between atoms: _419  and  _422
REMARK  181  A    between atoms: _422  and  _423
REMARK  182  A    between atoms: _433  and  _435
REMARK  183  A    between atoms: _435  and  _436
REMARK  184  A    between atoms: _435  and  _438
REMARK  185  A    between atoms: _438  and  _439
REMARK  186  A    between atoms: _439  and  _440
REMARK                            x       y       z     vdW  Elec       q    Type
REMARK                         _______ _______ _______ _____ _____    ______ ____
ROOT
ATOM      1  NE  ARG A   1      -2.907 -24.894 -22.815  0.00  0.00    -0.265 N 
ATOM      2  HE  ARG A   1      -2.423 -25.088 -21.915  0.00  0.00    +0.259 HD
ATOM      3  CZ  ARG A   1      -4.192 -25.231 -22.905  0.00  0.00    +0.342 C 
ATOM      4  NH2 ARG A   1      -4.797 -25.770 -21.856  0.00  0.00    -0.292 N 
ATOM      5 HH21 ARG A   1      -4.268 -25.926 -20.974  0.00  0.00    +0.255 HD
ATOM      6 HH22 ARG A   1      -5.800 -26.037 -21.915  0.00  0.00    +0.255 HD
ATOM      7  NH1 ARG A   1      -4.883 -25.022 -24.024  0.00  0.00    -0.292 N 
ATOM      8 HH11 ARG A   1      -5.886 -25.292 -24.074  0.00  0.00    +0.255 HD
ATOM      9 HH12 ARG A   1      -4.420 -24.588 -24.848  0.00  0.00    +0.255 HD
ENDROOT
BRANCH   1  10
ATOM     10  CD  ARG A   1      -2.122 -24.273 -23.882  0.00  0.00    +0.174 C 
BRANCH  10  11
ATOM     11  CG  ARG A   1      -0.986 -25.154 -24.345  0.00  0.00    +0.045 C 
BRANCH  11  12
ATOM     12  CB  ARG A   1      -0.277 -24.552 -25.552  0.00  0.00    +0.029 C 
BRANCH  12  13
ATOM     13  CA  ARG A   1       1.074 -25.199 -25.879  0.00  0.00    +0.133 C 
BRANCH  13  14
ATOM     14  N   ARG A   1       1.589 -24.696 -27.137  0.00  0.00    -0.239 NA
ATOM     15  H   ARG A   1       0.972 -24.694 -27.974  0.00  0.00    +0.142 HD
ENDBRANCH  13  14
BRANCH  13  16
ATOM     16  C   ARG A   1       0.968 -26.718 -25.919  0.00  0.00    +0.224 C 
ATOM     17  O   ARG A   1       0.349 -27.296 -26.844  0.00  0.00    -0.287 OA
ENDBRANCH  13  16
ENDBRANCH  12  13
ENDBRANCH  11  12
ENDBRANCH  10  11
ENDBRANCH   1  10
TORSDOF 6
REMARK  Name = ../refined-set-2016/3t2q/3t2q_pocket.pdb
REMARK  186 active torsions:
REMARK  status: ('A' for Active; 'I' for Inactive)
REMARK    1  A    between atoms: _1  and  _3
REMARK    2  A    between atoms: _3  and  _4
REMARK    3  A    between atoms: _3  and  _6
REMARK    4  A    between atoms: _6  and  _7
REMARK    5  A    between atoms: _12  and  _13
REMARK    6  A    between atoms: _15  and  _17
REMARK    7  A    between atoms: _17  and  _18
REMARK    8  A    between atoms: _17  and  _20
REMARK    9  A    between atoms: _20  and  _21
REMARK   10  A    between atoms: _24  and  _26
REMARK   11  A    between atoms: _26  and  _27
REMARK   12  A    between atoms: _26  and  _29
REMARK   13  A    between atoms: _29  and  _30
REMARK   14  A    between atoms: _35  and  _37
REMARK   15  A    between atoms: _37  and  _38
REMARK   16  A    between atoms: _37  and  _40
REMARK   17  A    between atoms: _43  and  _45
REMARK   18  A    between atoms: _45  and  _46
REMARK   19  A    between atoms: _45  and  _48
REMARK   20  A    between atoms: _48  and  _49
REMARK   21  A    between atoms: _52  and  _54
REMARK   22  A    between atoms: _54  and  _55
REMARK   23  A    between atoms: _54  and  _57
REMARK   24  A    between atoms: _57  and  _58
REMARK   25  A    between atoms: _58  and  _59
REMARK   26  A    between atoms: _64  and  _66
REMARK   27  A    between atoms: _66  and  _67
REMARK   28  A    between atoms: _66  and  _69
REMARK   29  A    between atoms: _69  and  _70
REMARK   30  A    between atoms: _73  and  _75
REMARK   31  A    between atoms: _75  and  _76
REMARK   32  A    between atoms: _75  and  _78
REMARK   33  A    between atoms: _78  and  _79
REMARK   34  A    between atoms: _79  and  _80
REMARK   35  A    between atoms: _82  and  _84
REMARK   36  A    between atoms: _84  and  _85
REMARK   37  A    between atoms: _84  and  _87
REMARK   38  A    between atoms: _87  and  _88
REMARK   39  A    between atoms: _88  and  _89
REMARK   40  A    between atoms: _89  and  _90
REMARK   41  A    between atoms: _99  and  _101
REMARK   42  A    between atoms: _101  and  _102
REMARK   43  A    between atoms: _101  and  _104
REMARK   44  A    between atoms: _104  and  _105
REMARK   45  A    between atoms: _110  and  _112
REMARK   46  A    between atoms: _112  and  _113
REMARK   47  A    between atoms: _112  and  _115
REMARK   48  A    between atoms: _115  and  _116
REMARK   49  A    between atoms: _121  and  _123
REMARK   50  A    between atoms: _123  and  _124
REMARK   51  A    between atoms: _123  and  _126
REMARK   52  A    between atoms: _126  and  _127
REMARK   53  A    between atoms: _127  and  _128
REMARK   54  A    between atoms: _128  and  _129
REMARK   55  A    between atoms: _138  and  _140
REMARK   56  A    between atoms: _140  and  _141
REMARK   57  A    between atoms: _140  and  _143
REMARK   58  A    between atoms: _143  and  _144
REMARK   59  A    between atoms: _146  and  _148
REMARK   60  A    between atoms: _148  and  _149
REMARK   61  A    between atoms: _148  and  _151
REMARK   62  A    between atoms: _151  and  _152
REMARK   63  A    between atoms: _157  and  _159
REMARK   64  A    between atoms: _159  and  _160
REMARK   65  A    between atoms: _159  and  _162
REMARK   66  A    between atoms: _162  and  _163
REMARK   67  A    between atoms: _163  and  _164
REMARK   68  A    between atoms: _167  and  _169
REMARK   69  A    between atoms: _169  and  _170
REMARK   70  A    between atoms: _169  and  _172
REMARK   71  A    between atoms: _172  and  _173
REMARK   72  A    between atoms: _173  and  _174
REMARK   73  A    between atoms: _177  and  _179
REMARK   74  A    between atoms: _179  and  _180
REMARK   75  A    between atoms: _179  and  _182
REMARK   76  A    between atoms: _182  and  _183
REMARK   77  A    between atoms: _184  and  MG_443
REMARK   78  A    between atoms: _188  and  _190
REMARK   79  A    between atoms: _190  and  _191
REMARK   80  A    between atoms: _190  and  _193
REMARK   81  A    between atoms: _193  and  _194
REMARK   82  A    between atoms: _199  and  _201
REMARK   83  A    between atoms: _201  and  _202
REMARK   84  A    between atoms: _201  and  _204
REMARK   85  A    between atoms: _204  and  _205
REMARK   86  A    between atoms: _205  and  _206
REMARK   87  A    between atoms: _209  and  _211
REMARK   88  A    between atoms: _211  and  _212
REMARK   89  A    between atoms: _211  and  _214
REMARK   90  A    between atoms: _214  and  _215
REMARK   91  A    between atoms: _215  and  _216
REMARK   92  A    between atoms: _219  and  _221
REMARK   93  A    between atoms: _221  and  _222
REMARK   94  A    between atoms: _221  and  _224
REMARK   95  A    between atoms: _224  and  _225
REMARK   96  A    between atoms: _225  and  _226
REMARK   97  A    between atoms: _228  and  _230
REMARK   98  A    between atoms: _230  and  _231
REMARK   99  A    between atoms: _230  and  _233
REMARK  100  A    between atoms: _233  and  _234
REMARK  101  A    between atoms: _239  and  _240
REMARK  102  A    between atoms: _242  and  _244
REMARK  103  A    between atoms: _244  and  _245
REMARK  104  A    between atoms: _244  and  _247
REMARK  105  A    between atoms: _247  and  _248
REMARK  106  A    between atoms: _248  and  _249
REMARK  107  A    between atoms: _249  and  _250
REMARK  108  A    between atoms: _250  and  _251
REMARK  109  A    between atoms: _255  and  _257
REMARK  110  A    between atoms: _257  and  _258
REMARK  111  A    between atoms: _257  and  _260
REMARK  112  A    between atoms: _262  and  _264
REMARK  113  A    between atoms: _264  and  _265
REMARK  114  A    between atoms: _264  and  _267
REMARK  115  A    between atoms: _267  and  _268
REMARK  116  A    between atoms: _268  and  _269
REMARK  117  A    between atoms: _272  and  _274
REMARK  118  A    between atoms: _274  and  _275
REMARK  119  A    between atoms: _274  and  _277
REMARK  120  A    between atoms: _277  and  _278
REMARK  121  A    between atoms: _283  and  _285
REMARK  122  A    between atoms: _285  and  _286
REMARK  123  A    between atoms: _289  and  _291
REMARK  124  A    between atoms: _291  and  _292
REMARK  125  A    between atoms: _291  and  _294
REMARK  126  A    between atoms: _294  and  _295
REMARK  127  A    between atoms: _295  and  _296
REMARK  128  A    between atoms: _298  and  _300
REMARK  129  A    between atoms: _300  and  _301
REMARK  130  A    between atoms: _300  and  _303
REMARK  131  A    between atoms: _303  and  _304
REMARK  132  A    between atoms: _314  and  _316
REMARK  133  A    between atoms: _316  and  _317
REMARK  134  A    between atoms: _316  and  _319
REMARK  135  A    between atoms: _319  and  _320
REMARK  136  A    between atoms: _323  and  _325
REMARK  137  A    between atoms: _325  and  _326
REMARK  138  A    between atoms: _325  and  _328
REMARK  139  A    between atoms: _328  and  _329
REMARK  140  A    between atoms: _329  and  _330
REMARK  141  A    between atoms: _335  and  _337
REMARK  142  A    between atoms: _337  and  _338
REMARK  143  A    between atoms: _337  and  _340
REMARK  144  A    between atoms: _340  and  _341
REMARK  145  A    between atoms: _341  and  _342
REMARK  146  A    between atoms: _347  and  _349
REMARK  147  A    between atoms: _349  and  _350
REMARK  148  A    between atoms: _349  and  _352
REMARK  149  A    between atoms: _352  and  _353
REMARK  150  A    between atoms: _359  and  _361
REMARK  151  A    between atoms: _361  and  _362
REMARK  152  A    between atoms: _361  and  _364
REMARK  153  A    between atoms: _366  and  _368
REMARK  154  A    between atoms: _368  and  _369
REMARK  155  A    between atoms: _368  and  _371
REMARK  156  A    between atoms: _371  and  _372
REMARK  157  A    between atoms: _372  and  _373
REMARK  158  A    between atoms: _375  and  _377
REMARK  159  A    between atoms: _377  and  _378
REMARK  160  A    between atoms: _377  and  _380
REMARK  161  A    between atoms: _380  and  _381
REMARK  162  A    between atoms: _381  and  _382
REMARK  163  A    between atoms: _381  and  _383
REMARK  164  A    between atoms: _386  and  _388
REMARK  165  A    between atoms: _388  and  _389
REMARK  166  A    between atoms: _391  and  _393
REMARK  167  A    between atoms: _393  and  _394
REMARK  168  A    between atoms: _393  and  _396
REMARK  169  A    between atoms: _396  and  _397
REMARK  170  A    between atoms: _400  and  _402
REMARK  171  A    between atoms: _402  and  _403
REMARK  172  A    between atoms: _402  and  _405
REMARK  173  A    between atoms: _405  and  _406
REMARK  174  A    between atoms: _409  and  _411
REMARK  175  A    between atoms: _411  and  _412
REMARK  176  A    between atoms: _411  and  _414
REMARK  177  A    between atoms: _414  and  _415
REMARK  178  A    between atoms: _417  and  _419
REMARK  179  A    between atoms: _419  and  _420
REMARK  180  A    between atoms: _419  and  _422
REMARK  181  A    between atoms: _422  and  _423
REMARK  182  A    between atoms: _433  and  _435
REMARK  183  A    between atoms: _435  and  _436
REMARK  184  A    between atoms: _435  and  _438
REMARK  185  A    between atoms: _438  and  _439
REMARK  186  A    between atoms: _439  and  _440
REMARK                            x       y       z     vdW  Elec       q    Type
REMARK                         _______ _______ _______ _____ _____    ______ ____
ROOT
ATOM      1  C   SER A   1      -2.306 -31.206 -24.974  0.00  0.00    +0.241 C 
ATOM      2  N   HIS A   2      -2.666 -31.838 -23.857  0.00  0.00    -0.298 N 
ATOM      3  H   HIS A   2      -2.914 -32.845 -23.940  0.00  0.00    +0.150 HD
ATOM      4  O   SER A   1      -2.042 -31.823 -26.003  0.00  0.00    -0.274 OA
ENDROOT
BRANCH   1   5
ATOM      5  CA  SER A   1      -2.162 -29.670 -24.951  0.00  0.00    +0.174 C 
BRANCH   5   6
ATOM      6  N   SER A   1      -0.792 -29.283 -25.253  0.00  0.00    -0.236 NA
ATOM      7  H   SER A   1      -0.551 -28.971 -26.215  0.00  0.00    +0.142 HD
ENDBRANCH   5   6
BRANCH   5   8
ATOM      8  CB  SER A   1      -3.090 -29.030 -25.983  0.00  0.00    +0.163 C 
BRANCH   8   9
ATOM      9  OG  SER A   1      -2.677 -29.396 -27.289  0.00  0.00    -0.380 OA
ATOM     10  H   SER A   1      -2.712 -30.381 -27.381  0.00  0.00    +0.211 HD
ENDBRANCH   8   9
ENDBRANCH   5   8
ENDBRANCH   1   5
BRANCH   2  11
ATOM     11  CA  HIS A   2      -2.743 -31.236 -22.519  0.00  0.00    +0.143 C 
BRANCH  11  12
ATOM     12  C   HIS A   2      -1.994 -32.154 -21.558  0.00  0.00    +0.227 C 
ATOM     13  O   HIS A   2      -2.589 -32.737 -20.640  0.00  0.00    -0.286 OA
ENDBRANCH  11  12
BRANCH  11  14
ATOM     14  CB  HIS A   2      -4.194 -31.110 -22.059  0.00  0.00    +0.075 C 
BRANCH  14  15
ATOM     15  CG  HIS A   2      -5.057 -30.324 -22.992  0.00  0.00    +0.082 A 
ATOM     16  ND1 HIS A   2      -5.006 -28.946 -23.072  0.00  0.00    -0.227 NA
ATOM     17  CE1 HIS A   2      -5.875 -28.530 -23.976  0.00  0.00    +0.199 A 
ATOM     18  NE2 HIS A   2      -6.487 -29.587 -24.483  0.00  0.00    -0.221 NA
ATOM     19  CD2 HIS A   2      -5.995 -30.721 -23.884  0.00  0.00    +0.115 A 
ENDBRANCH  14  15
ENDBRANCH  11  14
ENDBRANCH   2  11
TORSDOF 8
REMARK  Name = ../refined-set-2016/3t2q/3t2q_pocket.pdb
REMARK  186 active torsions:
REMARK  status: ('A' for Active; 'I' for Inactive)
REMARK    1  A    between atoms: _1  and  _3
REMARK    2  A    between atoms: _3  and  _4
REMARK    3  A    between atoms: _3  and  _6
REMARK    4  A    between atoms: _6  and  _7
REMARK    5  A    between atoms: _12  and  _13
REMARK    6  A    between atoms: _15  and  _17
REMARK    7  A    between atoms: _17  and  _18
REMARK    8  A    between atoms: _17  and  _20
REMARK    9  A    between atoms: _20  and  _21
REMARK   10  A    between atoms: _24  and  _26
REMARK   11  A    between atoms: _26  and  _27
REMARK   12  A    between atoms: _26  and  _29
REMARK   13  A    between atoms: _29  and  _30
REMARK   14  A    between atoms: _35  and  _37
REMARK   15  A    between atoms: _37  and  _38
REMARK   16  A    between atoms: _37  and  _40
REMARK   17  A    between atoms: _43  and  _45
REMARK   18  A    between atoms: _45  and  _46
REMARK   19  A    between atoms: _45  and  _48
REMARK   20  A    between atoms: _48  and  _49
REMARK   21  A    between atoms: _52  and  _54
REMARK   22  A    between atoms: _54  and  _55
REMARK   23  A    between atoms: _54  and  _57
REMARK   24  A    between atoms: _57  and  _58
REMARK   25  A    between atoms: _58  and  _59
REMARK   26  A    between atoms: _64  and  _66
REMARK   27  A    between atoms: _66  and  _67
REMARK   28  A    between atoms: _66  and  _69
REMARK   29  A    between atoms: _69  and  _70
REMARK   30  A    between atoms: _73  and  _75
REMARK   31  A    between atoms: _75  and  _76
REMARK   32  A    between atoms: _75  and  _78
REMARK   33  A    between atoms: _78  and  _79
REMARK   34  A    between atoms: _79  and  _80
REMARK   35  A    between atoms: _82  and  _84
REMARK   36  A    between atoms: _84  and  _85
REMARK   37  A    between atoms: _84  and  _87
REMARK   38  A    between atoms: _87  and  _88
REMARK   39  A    between atoms: _88  and  _89
REMARK   40  A    between atoms: _89  and  _90
REMARK   41  A    between atoms: _99  and  _101
REMARK   42  A    between atoms: _101  and  _102
REMARK   43  A    between atoms: _101  and  _104
REMARK   44  A    between atoms: _104  and  _105
REMARK   45  A    between atoms: _110  and  _112
REMARK   46  A    between atoms: _112  and  _113
REMARK   47  A    between atoms: _112  and  _115
REMARK   48  A    between atoms: _115  and  _116
REMARK   49  A    between atoms: _121  and  _123
REMARK   50  A    between atoms: _123  and  _124
REMARK   51  A    between atoms: _123  and  _126
REMARK   52  A    between atoms: _126  and  _127
REMARK   53  A    between atoms: _127  and  _128
REMARK   54  A    between atoms: _128  and  _129
REMARK   55  A    between atoms: _138  and  _140
REMARK   56  A    between atoms: _140  and  _141
REMARK   57  A    between atoms: _140  and  _143
REMARK   58  A    between atoms: _143  and  _144
REMARK   59  A    between atoms: _146  and  _148
REMARK   60  A    between atoms: _148  and  _149
REMARK   61  A    between atoms: _148  and  _151
REMARK   62  A    between atoms: _151  and  _152
REMARK   63  A    between atoms: _157  and  _159
REMARK   64  A    between atoms: _159  and  _160
REMARK   65  A    between atoms: _159  and  _162
REMARK   66  A    between atoms: _162  and  _163
REMARK   67  A    between atoms: _163  and  _164
REMARK   68  A    between atoms: _167  and  _169
REMARK   69  A    between atoms: _169  and  _170
REMARK   70  A    between atoms: _169  and  _172
REMARK   71  A    between atoms: _172  and  _173
REMARK   72  A    between atoms: _173  and  _174
REMARK   73  A    between atoms: _177  and  _179
REMARK   74  A    between atoms: _179  and  _180
REMARK   75  A    between atoms: _179  and  _182
REMARK   76  A    between atoms: _182  and  _183
REMARK   77  A    between atoms: _184  and  MG_443
REMARK   78  A    between atoms: _188  and  _190
REMARK   79  A    between atoms: _190  and  _191
REMARK   80  A    between atoms: _190  and  _193
REMARK   81  A    between atoms: _193  and  _194
REMARK   82  A    between atoms: _199  and  _201
REMARK   83  A    between atoms: _201  and  _202
REMARK   84  A    between atoms: _201  and  _204
REMARK   85  A    between atoms: _204  and  _205
REMARK   86  A    between atoms: _205  and  _206
REMARK   87  A    between atoms: _209  and  _211
REMARK   88  A    between atoms: _211  and  _212
REMARK   89  A    between atoms: _211  and  _214
REMARK   90  A    between atoms: _214  and  _215
REMARK   91  A    between atoms: _215  and  _216
REMARK   92  A    between atoms: _219  and  _221
REMARK   93  A    between atoms: _221  and  _222
REMARK   94  A    between atoms: _221  and  _224
REMARK   95  A    between atoms: _224  and  _225
REMARK   96  A    between atoms: _225  and  _226
REMARK   97  A    between atoms: _228  and  _230
REMARK   98  A    between atoms: _230  and  _231
REMARK   99  A    between atoms: _230  and  _233
REMARK  100  A    between atoms: _233  and  _234
REMARK  101  A    between atoms: _239  and  _240
REMARK  102  A    between atoms: _242  and  _244
REMARK  103  A    between atoms: _244  and  _245
REMARK  104  A    between atoms: _244  and  _247
REMARK  105  A    between atoms: _247  and  _248
REMARK  106  A    between atoms: _248  and  _249
REMARK  107  A    between atoms: _249  and  _250
REMARK  108  A    between atoms: _250  and  _251
REMARK  109  A    between atoms: _255  and  _257
REMARK  110  A    between atoms: _257  and  _258
REMARK  111  A    between atoms: _257  and  _260
REMARK  112  A    between atoms: _262  and  _264
REMARK  113  A    between atoms: _264  and  _265
REMARK  114  A    between atoms: _264  and  _267
REMARK  115  A    between atoms: _267  and  _268
REMARK  116  A    between atoms: _268  and  _269
REMARK  117  A    between atoms: _272  and  _274
REMARK  118  A    between atoms: _274  and  _275
REMARK  119  A    between atoms: _274  and  _277
REMARK  120  A    between atoms: _277  and  _278
REMARK  121  A    between atoms: _283  and  _285
REMARK  122  A    between atoms: _285  and  _286
REMARK  123  A    between atoms: _289  and  _291
REMARK  124  A    between atoms: _291  and  _292
REMARK  125  A    between atoms: _291  and  _294
REMARK  126  A    between atoms: _294  and  _295
REMARK  127  A    between atoms: _295  and  _296
REMARK  128  A    between atoms: _298  and  _300
REMARK  129  A    between atoms: _300  and  _301
REMARK  130  A    between atoms: _300  and  _303
REMARK  131  A    between atoms: _303  and  _304
REMARK  132  A    between atoms: _314  and  _316
REMARK  133  A    between atoms: _316  and  _317
REMARK  134  A    between atoms: _316  and  _319
REMARK  135  A    between atoms: _319  and  _320
REMARK  136  A    between atoms: _323  and  _325
REMARK  137  A    between atoms: _325  and  _326
REMARK  138  A    between atoms: _325  and  _328
REMARK  139  A    between atoms: _328  and  _329
REMARK  140  A    between atoms: _329  and  _330
REMARK  141  A    between atoms: _335  and  _337
REMARK  142  A    between atoms: _337  and  _338
REMARK  143  A    between atoms: _337  and  _340
REMARK  144  A    between atoms: _340  and  _341
REMARK  145  A    between atoms: _341  and  _342
REMARK  146  A    between atoms: _347  and  _349
REMARK  147  A    between atoms: _349  and  _350
REMARK  148  A    between atoms: _349  and  _352
REMARK  149  A    between atoms: _352  and  _353
REMARK  150  A    between atoms: _359  and  _361
REMARK  151  A    between atoms: _361  and  _362
REMARK  152  A    between atoms: _361  and  _364
REMARK  153  A    between atoms: _366  and  _368
REMARK  154  A    between atoms: _368  and  _369
REMARK  155  A    between atoms: _368  and  _371
REMARK  156  A    between atoms: _371  and  _372
REMARK  157  A    between atoms: _372  and  _373
REMARK  158  A    between atoms: _375  and  _377
REMARK  159  A    between atoms: _377  and  _378
REMARK  160  A    between atoms: _377  and  _380
REMARK  161  A    between atoms: _380  and  _381
REMARK  162  A    between atoms: _381  and  _382
REMARK  163  A    between atoms: _381  and  _383
REMARK  164  A    between atoms: _386  and  _388
REMARK  165  A    between atoms: _388  and  _389
REMARK  166  A    between atoms: _391  and  _393
REMARK  167  A    between atoms: _393  and  _394
REMARK  168  A    between atoms: _393  and  _396
REMARK  169  A    between atoms: _396  and  _397
REMARK  170  A    between atoms: _400  and  _402
REMARK  171  A    between atoms: _402  and  _403
REMARK  172  A    between atoms: _402  and  _405
REMARK  173  A    between atoms: _405  and  _406
REMARK  174  A    between atoms: _409  and  _411
REMARK  175  A    between atoms: _411  and  _412
REMARK  176  A    between atoms: _411  and  _414
REMARK  177  A    between atoms: _414  and  _415
REMARK  178  A    between atoms: _417  and  _419
REMARK  179  A    between atoms: _419  and  _420
REMARK  180  A    between atoms: _419  and  _422
REMARK  181  A    between atoms: _422  and  _423
REMARK  182  A    between atoms: _433  and  _435
REMARK  183  A    between atoms: _435  and  _436
REMARK  184  A    between atoms: _435  and  _438
REMARK  185  A    between atoms: _438  and  _439
REMARK  186  A    between atoms: _439  and  _440
REMARK                            x       y       z     vdW  Elec       q    Type
REMARK                         _______ _______ _______ _____ _____    ______ ____
ROOT
ATOM      1  CA  GLU A   1       1.154 -28.604 -19.036  0.00  0.00    +0.134 C 
ENDROOT
BRANCH   1   2
ATOM      2  N   GLU A   1       2.436 -28.407 -19.689  0.00  0.00    -0.239 NA
ATOM      3  H   GLU A   1       2.741 -29.094 -20.408  0.00  0.00    +0.142 HD
ENDBRANCH   1   2
BRANCH   1   4
ATOM      4  C   GLU A   1       1.045 -29.979 -18.357  0.00  0.00    +0.224 C 
ATOM      5  O   GLU A   1       1.305 -30.997 -18.974  0.00  0.00    -0.287 OA
ENDBRANCH   1   4
BRANCH   1   6
ATOM      6  CB  GLU A   1       0.044 -28.439 -20.087  0.00  0.00    +0.037 C 
BRANCH   6   7
ATOM      7  CG  GLU A   1      -1.362 -28.390 -19.527  0.00  0.00    +0.116 C 
BRANCH   7   8
ATOM      8  CD  GLU A   1      -2.317 -27.664 -20.450  0.00  0.00    +0.365 C 
ATOM      9  OE2 GLU A   1      -2.283 -26.414 -20.487  0.00  0.00    -0.246 OA
ATOM     10  OE1 GLU A   1      -3.087 -28.344 -21.159  0.00  0.00    -0.246 OA
ENDBRANCH   7   8
ENDBRANCH   6   7
ENDBRANCH   1   6
TORSDOF 5
REMARK  Name = ../refined-set-2016/3t2q/3t2q_pocket.pdb
REMARK  186 active torsions:
REMARK  status: ('A' for Active; 'I' for Inactive)
REMARK    1  A    between atoms: _1  and  _3
REMARK    2  A    between atoms: _3  and  _4
REMARK    3  A    between atoms: _3  and  _6
REMARK    4  A    between atoms: _6  and  _7
REMARK    5  A    between atoms: _12  and  _13
REMARK    6  A    between atoms: _15  and  _17
REMARK    7  A    between atoms: _17  and  _18
REMARK    8  A    between atoms: _17  and  _20
REMARK    9  A    between atoms: _20  and  _21
REMARK   10  A    between atoms: _24  and  _26
REMARK   11  A    between atoms: _26  and  _27
REMARK   12  A    between atoms: _26  and  _29
REMARK   13  A    between atoms: _29  and  _30
REMARK   14  A    between atoms: _35  and  _37
REMARK   15  A    between atoms: _37  and  _38
REMARK   16  A    between atoms: _37  and  _40
REMARK   17  A    between atoms: _43  and  _45
REMARK   18  A    between atoms: _45  and  _46
REMARK   19  A    between atoms: _45  and  _48
REMARK   20  A    between atoms: _48  and  _49
REMARK   21  A    between atoms: _52  and  _54
REMARK   22  A    between atoms: _54  and  _55
REMARK   23  A    between atoms: _54  and  _57
REMARK   24  A    between atoms: _57  and  _58
REMARK   25  A    between atoms: _58  and  _59
REMARK   26  A    between atoms: _64  and  _66
REMARK   27  A    between atoms: _66  and  _67
REMARK   28  A    between atoms: _66  and  _69
REMARK   29  A    between atoms: _69  and  _70
REMARK   30  A    between atoms: _73  and  _75
REMARK   31  A    between atoms: _75  and  _76
REMARK   32  A    between atoms: _75  and  _78
REMARK   33  A    between atoms: _78  and  _79
REMARK   34  A    between atoms: _79  and  _80
REMARK   35  A    between atoms: _82  and  _84
REMARK   36  A    between atoms: _84  and  _85
REMARK   37  A    between atoms: _84  and  _87
REMARK   38  A    between atoms: _87  and  _88
REMARK   39  A    between atoms: _88  and  _89
REMARK   40  A    between atoms: _89  and  _90
REMARK   41  A    between atoms: _99  and  _101
REMARK   42  A    between atoms: _101  and  _102
REMARK   43  A    between atoms: _101  and  _104
REMARK   44  A    between atoms: _104  and  _105
REMARK   45  A    between atoms: _110  and  _112
REMARK   46  A    between atoms: _112  and  _113
REMARK   47  A    between atoms: _112  and  _115
REMARK   48  A    between atoms: _115  and  _116
REMARK   49  A    between atoms: _121  and  _123
REMARK   50  A    between atoms: _123  and  _124
REMARK   51  A    between atoms: _123  and  _126
REMARK   52  A    between atoms: _126  and  _127
REMARK   53  A    between atoms: _127  and  _128
REMARK   54  A    between atoms: _128  and  _129
REMARK   55  A    between atoms: _138  and  _140
REMARK   56  A    between atoms: _140  and  _141
REMARK   57  A    between atoms: _140  and  _143
REMARK   58  A    between atoms: _143  and  _144
REMARK   59  A    between atoms: _146  and  _148
REMARK   60  A    between atoms: _148  and  _149
REMARK   61  A    between atoms: _148  and  _151
REMARK   62  A    between atoms: _151  and  _152
REMARK   63  A    between atoms: _157  and  _159
REMARK   64  A    between atoms: _159  and  _160
REMARK   65  A    between atoms: _159  and  _162
REMARK   66  A    between atoms: _162  and  _163
REMARK   67  A    between atoms: _163  and  _164
REMARK   68  A    between atoms: _167  and  _169
REMARK   69  A    between atoms: _169  and  _170
REMARK   70  A    between atoms: _169  and  _172
REMARK   71  A    between atoms: _172  and  _173
REMARK   72  A    between atoms: _173  and  _174
REMARK   73  A    between atoms: _177  and  _179
REMARK   74  A    between atoms: _179  and  _180
REMARK   75  A    between atoms: _179  and  _182
REMARK   76  A    between atoms: _182  and  _183
REMARK   77  A    between atoms: _184  and  MG_443
REMARK   78  A    between atoms: _188  and  _190
REMARK   79  A    between atoms: _190  and  _191
REMARK   80  A    between atoms: _190  and  _193
REMARK   81  A    between atoms: _193  and  _194
REMARK   82  A    between atoms: _199  and  _201
REMARK   83  A    between atoms: _201  and  _202
REMARK   84  A    between atoms: _201  and  _204
REMARK   85  A    between atoms: _204  and  _205
REMARK   86  A    between atoms: _205  and  _206
REMARK   87  A    between atoms: _209  and  _211
REMARK   88  A    between atoms: _211  and  _212
REMARK   89  A    between atoms: _211  and  _214
REMARK   90  A    between atoms: _214  and  _215
REMARK   91  A    between atoms: _215  and  _216
REMARK   92  A    between atoms: _219  and  _221
REMARK   93  A    between atoms: _221  and  _222
REMARK   94  A    between atoms: _221  and  _224
REMARK   95  A    between atoms: _224  and  _225
REMARK   96  A    between atoms: _225  and  _226
REMARK   97  A    between atoms: _228  and  _230
REMARK   98  A    between atoms: _230  and  _231
REMARK   99  A    between atoms: _230  and  _233
REMARK  100  A    between atoms: _233  and  _234
REMARK  101  A    between atoms: _239  and  _240
REMARK  102  A    between atoms: _242  and  _244
REMARK  103  A    between atoms: _244  and  _245
REMARK  104  A    between atoms: _244  and  _247
REMARK  105  A    between atoms: _247  and  _248
REMARK  106  A    between atoms: _248  and  _249
REMARK  107  A    between atoms: _249  and  _250
REMARK  108  A    between atoms: _250  and  _251
REMARK  109  A    between atoms: _255  and  _257
REMARK  110  A    between atoms: _257  and  _258
REMARK  111  A    between atoms: _257  and  _260
REMARK  112  A    between atoms: _262  and  _264
REMARK  113  A    between atoms: _264  and  _265
REMARK  114  A    between atoms: _264  and  _267
REMARK  115  A    between atoms: _267  and  _268
REMARK  116  A    between atoms: _268  and  _269
REMARK  117  A    between atoms: _272  and  _274
REMARK  118  A    between atoms: _274  and  _275
REMARK  119  A    between atoms: _274  and  _277
REMARK  120  A    between atoms: _277  and  _278
REMARK  121  A    between atoms: _283  and  _285
REMARK  122  A    between atoms: _285  and  _286
REMARK  123  A    between atoms: _289  and  _291
REMARK  124  A    between atoms: _291  and  _292
REMARK  125  A    between atoms: _291  and  _294
REMARK  126  A    between atoms: _294  and  _295
REMARK  127  A    between atoms: _295  and  _296
REMARK  128  A    between atoms: _298  and  _300
REMARK  129  A    between atoms: _300  and  _301
REMARK  130  A    between atoms: _300  and  _303
REMARK  131  A    between atoms: _303  and  _304
REMARK  132  A    between atoms: _314  and  _316
REMARK  133  A    between atoms: _316  and  _317
REMARK  134  A    between atoms: _316  and  _319
REMARK  135  A    between atoms: _319  and  _320
REMARK  136  A    between atoms: _323  and  _325
REMARK  137  A    between atoms: _325  and  _326
REMARK  138  A    between atoms: _325  and  _328
REMARK  139  A    between atoms: _328  and  _329
REMARK  140  A    between atoms: _329  and  _330
REMARK  141  A    between atoms: _335  and  _337
REMARK  142  A    between atoms: _337  and  _338
REMARK  143  A    between atoms: _337  and  _340
REMARK  144  A    between atoms: _340  and  _341
REMARK  145  A    between atoms: _341  and  _342
REMARK  146  A    between atoms: _347  and  _349
REMARK  147  A    between atoms: _349  and  _350
REMARK  148  A    between atoms: _349  and  _352
REMARK  149  A    between atoms: _352  and  _353
REMARK  150  A    between atoms: _359  and  _361
REMARK  151  A    between atoms: _361  and  _362
REMARK  152  A    between atoms: _361  and  _364
REMARK  153  A    between atoms: _366  and  _368
REMARK  154  A    between atoms: _368  and  _369
REMARK  155  A    between atoms: _368  and  _371
REMARK  156  A    between atoms: _371  and  _372
REMARK  157  A    between atoms: _372  and  _373
REMARK  158  A    between atoms: _375  and  _377
REMARK  159  A    between atoms: _377  and  _378
REMARK  160  A    between atoms: _377  and  _380
REMARK  161  A    between atoms: _380  and  _381
REMARK  162  A    between atoms: _381  and  _382
REMARK  163  A    between atoms: _381  and  _383
REMARK  164  A    between atoms: _386  and  _388
REMARK  165  A    between atoms: _388  and  _389
REMARK  166  A    between atoms: _391  and  _393
REMARK  167  A    between atoms: _393  and  _394
REMARK  168  A    between atoms: _393  and  _396
REMARK  169  A    between atoms: _396  and  _397
REMARK  170  A    between atoms: _400  and  _402
REMARK  171  A    between atoms: _402  and  _403
REMARK  172  A    between atoms: _402  and  _405
REMARK  173  A    between atoms: _405  and  _406
REMARK  174  A    between atoms: _409  and  _411
REMARK  175  A    between atoms: _411  and  _412
REMARK  176  A    between atoms: _411  and  _414
REMARK  177  A    between atoms: _414  and  _415
REMARK  178  A    between atoms: _417  and  _419
REMARK  179  A    between atoms: _419  and  _420
REMARK  180  A    between atoms: _419  and  _422
REMARK  181  A    between atoms: _422  and  _423
REMARK  182  A    between atoms: _433  and  _435
REMARK  183  A    between atoms: _435  and  _436
REMARK  184  A    between atoms: _435  and  _438
REMARK  185  A    between atoms: _438  and  _439
REMARK  186  A    between atoms: _439  and  _440
REMARK                            x       y       z     vdW  Elec       q    Type
REMARK                         _______ _______ _______ _____ _____    ______ ____
ROOT
ATOM      1  CA  GLU A   1      -8.027 -33.219 -17.350  0.00  0.00    +0.134 C 
ENDROOT
BRANCH   1   2
ATOM      2  N   GLU A   1      -6.763 -33.697 -16.779  0.00  0.00    -0.239 NA
ATOM      3  H   GLU A   1      -6.632 -34.721 -16.655  0.00  0.00    +0.142 HD
ENDBRANCH   1   2
BRANCH   1   4
ATOM      4  C   GLU A   1      -9.156 -34.099 -16.845  0.00  0.00    +0.224 C 
ATOM      5  O   GLU A   1      -9.138 -35.310 -17.031  0.00  0.00    -0.287 OA
ENDBRANCH   1   4
BRANCH   1   6
ATOM      6  CB  GLU A   1      -8.014 -33.178 -18.895  0.00  0.00    +0.037 C 
BRANCH   6   7
ATOM      7  CG  GLU A   1      -9.414 -32.926 -19.481  0.00  0.00    +0.116 C 
BRANCH   7   8
ATOM      8  CD  GLU A   1      -9.458 -32.231 -20.851  0.00  0.00    +0.365 C 
ATOM      9  OE2 GLU A   1     -10.579 -31.855 -21.251  0.00  0.00    -0.246 OA
ATOM     10  OE1 GLU A   1      -8.420 -32.057 -21.533  0.00  0.00    -0.246 OA
ENDBRANCH   7   8
ENDBRANCH   6   7
ENDBRANCH   1   6
TORSDOF 5
REMARK  Name = ../refined-set-2016/3t2q/3t2q_pocket.pdb
REMARK  186 active torsions:
REMARK  status: ('A' for Active; 'I' for Inactive)
REMARK    1  A    between atoms: _1  and  _3
REMARK    2  A    between atoms: _3  and  _4
REMARK    3  A    between atoms: _3  and  _6
REMARK    4  A    between atoms: _6  and  _7
REMARK    5  A    between atoms: _12  and  _13
REMARK    6  A    between atoms: _15  and  _17
REMARK    7  A    between atoms: _17  and  _18
REMARK    8  A    between atoms: _17  and  _20
REMARK    9  A    between atoms: _20  and  _21
REMARK   10  A    between atoms: _24  and  _26
REMARK   11  A    between atoms: _26  and  _27
REMARK   12  A    between atoms: _26  and  _29
REMARK   13  A    between atoms: _29  and  _30
REMARK   14  A    between atoms: _35  and  _37
REMARK   15  A    between atoms: _37  and  _38
REMARK   16  A    between atoms: _37  and  _40
REMARK   17  A    between atoms: _43  and  _45
REMARK   18  A    between atoms: _45  and  _46
REMARK   19  A    between atoms: _45  and  _48
REMARK   20  A    between atoms: _48  and  _49
REMARK   21  A    between atoms: _52  and  _54
REMARK   22  A    between atoms: _54  and  _55
REMARK   23  A    between atoms: _54  and  _57
REMARK   24  A    between atoms: _57  and  _58
REMARK   25  A    between atoms: _58  and  _59
REMARK   26  A    between atoms: _64  and  _66
REMARK   27  A    between atoms: _66  and  _67
REMARK   28  A    between atoms: _66  and  _69
REMARK   29  A    between atoms: _69  and  _70
REMARK   30  A    between atoms: _73  and  _75
REMARK   31  A    between atoms: _75  and  _76
REMARK   32  A    between atoms: _75  and  _78
REMARK   33  A    between atoms: _78  and  _79
REMARK   34  A    between atoms: _79  and  _80
REMARK   35  A    between atoms: _82  and  _84
REMARK   36  A    between atoms: _84  and  _85
REMARK   37  A    between atoms: _84  and  _87
REMARK   38  A    between atoms: _87  and  _88
REMARK   39  A    between atoms: _88  and  _89
REMARK   40  A    between atoms: _89  and  _90
REMARK   41  A    between atoms: _99  and  _101
REMARK   42  A    between atoms: _101  and  _102
REMARK   43  A    between atoms: _101  and  _104
REMARK   44  A    between atoms: _104  and  _105
REMARK   45  A    between atoms: _110  and  _112
REMARK   46  A    between atoms: _112  and  _113
REMARK   47  A    between atoms: _112  and  _115
REMARK   48  A    between atoms: _115  and  _116
REMARK   49  A    between atoms: _121  and  _123
REMARK   50  A    between atoms: _123  and  _124
REMARK   51  A    between atoms: _123  and  _126
REMARK   52  A    between atoms: _126  and  _127
REMARK   53  A    between atoms: _127  and  _128
REMARK   54  A    between atoms: _128  and  _129
REMARK   55  A    between atoms: _138  and  _140
REMARK   56  A    between atoms: _140  and  _141
REMARK   57  A    between atoms: _140  and  _143
REMARK   58  A    between atoms: _143  and  _144
REMARK   59  A    between atoms: _146  and  _148
REMARK   60  A    between atoms: _148  and  _149
REMARK   61  A    between atoms: _148  and  _151
REMARK   62  A    between atoms: _151  and  _152
REMARK   63  A    between atoms: _157  and  _159
REMARK   64  A    between atoms: _159  and  _160
REMARK   65  A    between atoms: _159  and  _162
REMARK   66  A    between atoms: _162  and  _163
REMARK   67  A    between atoms: _163  and  _164
REMARK   68  A    between atoms: _167  and  _169
REMARK   69  A    between atoms: _169  and  _170
REMARK   70  A    between atoms: _169  and  _172
REMARK   71  A    between atoms: _172  and  _173
REMARK   72  A    between atoms: _173  and  _174
REMARK   73  A    between atoms: _177  and  _179
REMARK   74  A    between atoms: _179  and  _180
REMARK   75  A    between atoms: _179  and  _182
REMARK   76  A    between atoms: _182  and  _183
REMARK   77  A    between atoms: _184  and  MG_443
REMARK   78  A    between atoms: _188  and  _190
REMARK   79  A    between atoms: _190  and  _191
REMARK   80  A    between atoms: _190  and  _193
REMARK   81  A    between atoms: _193  and  _194
REMARK   82  A    between atoms: _199  and  _201
REMARK   83  A    between atoms: _201  and  _202
REMARK   84  A    between atoms: _201  and  _204
REMARK   85  A    between atoms: _204  and  _205
REMARK   86  A    between atoms: _205  and  _206
REMARK   87  A    between atoms: _209  and  _211
REMARK   88  A    between atoms: _211  and  _212
REMARK   89  A    between atoms: _211  and  _214
REMARK   90  A    between atoms: _214  and  _215
REMARK   91  A    between atoms: _215  and  _216
REMARK   92  A    between atoms: _219  and  _221
REMARK   93  A    between atoms: _221  and  _222
REMARK   94  A    between atoms: _221  and  _224
REMARK   95  A    between atoms: _224  and  _225
REMARK   96  A    between atoms: _225  and  _226
REMARK   97  A    between atoms: _228  and  _230
REMARK   98  A    between atoms: _230  and  _231
REMARK   99  A    between atoms: _230  and  _233
REMARK  100  A    between atoms: _233  and  _234
REMARK  101  A    between atoms: _239  and  _240
REMARK  102  A    between atoms: _242  and  _244
REMARK  103  A    between atoms: _244  and  _245
REMARK  104  A    between atoms: _244  and  _247
REMARK  105  A    between atoms: _247  and  _248
REMARK  106  A    between atoms: _248  and  _249
REMARK  107  A    between atoms: _249  and  _250
REMARK  108  A    between atoms: _250  and  _251
REMARK  109  A    between atoms: _255  and  _257
REMARK  110  A    between atoms: _257  and  _258
REMARK  111  A    between atoms: _257  and  _260
REMARK  112  A    between atoms: _262  and  _264
REMARK  113  A    between atoms: _264  and  _265
REMARK  114  A    between atoms: _264  and  _267
REMARK  115  A    between atoms: _267  and  _268
REMARK  116  A    between atoms: _268  and  _269
REMARK  117  A    between atoms: _272  and  _274
REMARK  118  A    between atoms: _274  and  _275
REMARK  119  A    between atoms: _274  and  _277
REMARK  120  A    between atoms: _277  and  _278
REMARK  121  A    between atoms: _283  and  _285
REMARK  122  A    between atoms: _285  and  _286
REMARK  123  A    between atoms: _289  and  _291
REMARK  124  A    between atoms: _291  and  _292
REMARK  125  A    between atoms: _291  and  _294
REMARK  126  A    between atoms: _294  and  _295
REMARK  127  A    between atoms: _295  and  _296
REMARK  128  A    between atoms: _298  and  _300
REMARK  129  A    between atoms: _300  and  _301
REMARK  130  A    between atoms: _300  and  _303
REMARK  131  A    between atoms: _303  and  _304
REMARK  132  A    between atoms: _314  and  _316
REMARK  133  A    between atoms: _316  and  _317
REMARK  134  A    between atoms: _316  and  _319
REMARK  135  A    between atoms: _319  and  _320
REMARK  136  A    between atoms: _323  and  _325
REMARK  137  A    between atoms: _325  and  _326
REMARK  138  A    between atoms: _325  and  _328
REMARK  139  A    between atoms: _328  and  _329
REMARK  140  A    between atoms: _329  and  _330
REMARK  141  A    between atoms: _335  and  _337
REMARK  142  A    between atoms: _337  and  _338
REMARK  143  A    between atoms: _337  and  _340
REMARK  144  A    between atoms: _340  and  _341
REMARK  145  A    between atoms: _341  and  _342
REMARK  146  A    between atoms: _347  and  _349
REMARK  147  A    between atoms: _349  and  _350
REMARK  148  A    between atoms: _349  and  _352
REMARK  149  A    between atoms: _352  and  _353
REMARK  150  A    between atoms: _359  and  _361
REMARK  151  A    between atoms: _361  and  _362
REMARK  152  A    between atoms: _361  and  _364
REMARK  153  A    between atoms: _366  and  _368
REMARK  154  A    between atoms: _368  and  _369
REMARK  155  A    between atoms: _368  and  _371
REMARK  156  A    between atoms: _371  and  _372
REMARK  157  A    between atoms: _372  and  _373
REMARK  158  A    between atoms: _375  and  _377
REMARK  159  A    between atoms: _377  and  _378
REMARK  160  A    between atoms: _377  and  _380
REMARK  161  A    between atoms: _380  and  _381
REMARK  162  A    between atoms: _381  and  _382
REMARK  163  A    between atoms: _381  and  _383
REMARK  164  A    between atoms: _386  and  _388
REMARK  165  A    between atoms: _388  and  _389
REMARK  166  A    between atoms: _391  and  _393
REMARK  167  A    between atoms: _393  and  _394
REMARK  168  A    between atoms: _393  and  _396
REMARK  169  A    between atoms: _396  and  _397
REMARK  170  A    between atoms: _400  and  _402
REMARK  171  A    between atoms: _402  and  _403
REMARK  172  A    between atoms: _402  and  _405
REMARK  173  A    between atoms: _405  and  _406
REMARK  174  A    between atoms: _409  and  _411
REMARK  175  A    between atoms: _411  and  _412
REMARK  176  A    between atoms: _411  and  _414
REMARK  177  A    between atoms: _414  and  _415
REMARK  178  A    between atoms: _417  and  _419
REMARK  179  A    between atoms: _419  and  _420
REMARK  180  A    between atoms: _419  and  _422
REMARK  181  A    between atoms: _422  and  _423
REMARK  182  A    between atoms: _433  and  _435
REMARK  183  A    between atoms: _435  and  _436
REMARK  184  A    between atoms: _435  and  _438
REMARK  185  A    between atoms: _438  and  _439
REMARK  186  A    between atoms: _439  and  _440
REMARK                            x       y       z     vdW  Elec       q    Type
REMARK                         _______ _______ _______ _____ _____    ______ ____
ROOT
ATOM      1  C   UNL     1     -14.068 -31.369 -20.302  0.00  0.00    +0.000 A 
ATOM      2  C   UNL     1     -15.204 -30.698 -19.982  0.00  0.00    +0.000 A 
ATOM      3  N   UNL     1     -15.427 -29.778 -20.977  0.00  0.00    +0.000 NA
ATOM      4  C   UNL     1     -14.464 -29.877 -21.877  0.00  0.00    +0.000 A 
ATOM      5  N   UNL     1     -13.624 -30.825 -21.493  0.00  0.00    +0.000 N 
ENDROOT
BRANCH   5   6
ATOM      6 MG   UNL     1     -11.972 -31.210 -22.641  0.00  0.00    +0.000 Mg
ATOM      7  O   UNL     1     -12.716 -30.871 -24.442  0.00  0.00    +0.000 OA
ENDBRANCH   5   6
BRANCH   1   8
ATOM      8  C   UNL     1     -13.336 -32.476 -19.601  0.00  0.00    +0.000 C 
BRANCH   8   9
ATOM      9  CA  UNL     1     -13.618 -32.565 -18.101  0.00  0.00    +0.000 C 
BRANCH   9  10
ATOM     10  N   UNL     1     -12.542 -33.312 -17.439  0.00  0.00    +0.000 NA
ATOM     11  H   UNL     1     -11.727 -33.615 -18.010  0.00  0.00    +0.000 HD
ENDBRANCH   9  10
BRANCH   9  12
ATOM     12  C   UNL     1     -14.996 -33.173 -17.885  0.00  0.00    +0.000 C 
ATOM     13  O   UNL     1     -15.982 -32.441 -17.738  0.00  0.00    +0.000 OA
ENDBRANCH   9  12
ENDBRANCH   8   9
ENDBRANCH   1   8
TORSDOF 5
REMARK  Name = ../refined-set-2016/3t2q/3t2q_pocket.pdb
REMARK  186 active torsions:
REMARK  status: ('A' for Active; 'I' for Inactive)
REMARK    1  A    between atoms: _1  and  _3
REMARK    2  A    between atoms: _3  and  _4
REMARK    3  A    between atoms: _3  and  _6
REMARK    4  A    between atoms: _6  and  _7
REMARK    5  A    between atoms: _12  and  _13
REMARK    6  A    between atoms: _15  and  _17
REMARK    7  A    between atoms: _17  and  _18
REMARK    8  A    between atoms: _17  and  _20
REMARK    9  A    between atoms: _20  and  _21
REMARK   10  A    between atoms: _24  and  _26
REMARK   11  A    between atoms: _26  and  _27
REMARK   12  A    between atoms: _26  and  _29
REMARK   13  A    between atoms: _29  and  _30
REMARK   14  A    between atoms: _35  and  _37
REMARK   15  A    between atoms: _37  and  _38
REMARK   16  A    between atoms: _37  and  _40
REMARK   17  A    between atoms: _43  and  _45
REMARK   18  A    between atoms: _45  and  _46
REMARK   19  A    between atoms: _45  and  _48
REMARK   20  A    between atoms: _48  and  _49
REMARK   21  A    between atoms: _52  and  _54
REMARK   22  A    between atoms: _54  and  _55
REMARK   23  A    between atoms: _54  and  _57
REMARK   24  A    between atoms: _57  and  _58
REMARK   25  A    between atoms: _58  and  _59
REMARK   26  A    between atoms: _64  and  _66
REMARK   27  A    between atoms: _66  and  _67
REMARK   28  A    between atoms: _66  and  _69
REMARK   29  A    between atoms: _69  and  _70
REMARK   30  A    between atoms: _73  and  _75
REMARK   31  A    between atoms: _75  and  _76
REMARK   32  A    between atoms: _75  and  _78
REMARK   33  A    between atoms: _78  and  _79
REMARK   34  A    between atoms: _79  and  _80
REMARK   35  A    between atoms: _82  and  _84
REMARK   36  A    between atoms: _84  and  _85
REMARK   37  A    between atoms: _84  and  _87
REMARK   38  A    between atoms: _87  and  _88
REMARK   39  A    between atoms: _88  and  _89
REMARK   40  A    between atoms: _89  and  _90
REMARK   41  A    between atoms: _99  and  _101
REMARK   42  A    between atoms: _101  and  _102
REMARK   43  A    between atoms: _101  and  _104
REMARK   44  A    between atoms: _104  and  _105
REMARK   45  A    between atoms: _110  and  _112
REMARK   46  A    between atoms: _112  and  _113
REMARK   47  A    between atoms: _112  and  _115
REMARK   48  A    between atoms: _115  and  _116
REMARK   49  A    between atoms: _121  and  _123
REMARK   50  A    between atoms: _123  and  _124
REMARK   51  A    between atoms: _123  and  _126
REMARK   52  A    between atoms: _126  and  _127
REMARK   53  A    between atoms: _127  and  _128
REMARK   54  A    between atoms: _128  and  _129
REMARK   55  A    between atoms: _138  and  _140
REMARK   56  A    between atoms: _140  and  _141
REMARK   57  A    between atoms: _140  and  _143
REMARK   58  A    between atoms: _143  and  _144
REMARK   59  A    between atoms: _146  and  _148
REMARK   60  A    between atoms: _148  and  _149
REMARK   61  A    between atoms: _148  and  _151
REMARK   62  A    between atoms: _151  and  _152
REMARK   63  A    between atoms: _157  and  _159
REMARK   64  A    between atoms: _159  and  _160
REMARK   65  A    between atoms: _159  and  _162
REMARK   66  A    between atoms: _162  and  _163
REMARK   67  A    between atoms: _163  and  _164
REMARK   68  A    between atoms: _167  and  _169
REMARK   69  A    between atoms: _169  and  _170
REMARK   70  A    between atoms: _169  and  _172
REMARK   71  A    between atoms: _172  and  _173
REMARK   72  A    between atoms: _173  and  _174
REMARK   73  A    between atoms: _177  and  _179
REMARK   74  A    between atoms: _179  and  _180
REMARK   75  A    between atoms: _179  and  _182
REMARK   76  A    between atoms: _182  and  _183
REMARK   77  A    between atoms: _184  and  MG_443
REMARK   78  A    between atoms: _188  and  _190
REMARK   79  A    between atoms: _190  and  _191
REMARK   80  A    between atoms: _190  and  _193
REMARK   81  A    between atoms: _193  and  _194
REMARK   82  A    between atoms: _199  and  _201
REMARK   83  A    between atoms: _201  and  _202
REMARK   84  A    between atoms: _201  and  _204
REMARK   85  A    between atoms: _204  and  _205
REMARK   86  A    between atoms: _205  and  _206
REMARK   87  A    between atoms: _209  and  _211
REMARK   88  A    between atoms: _211  and  _212
REMARK   89  A    between atoms: _211  and  _214
REMARK   90  A    between atoms: _214  and  _215
REMARK   91  A    between atoms: _215  and  _216
REMARK   92  A    between atoms: _219  and  _221
REMARK   93  A    between atoms: _221  and  _222
REMARK   94  A    between atoms: _221  and  _224
REMARK   95  A    between atoms: _224  and  _225
REMARK   96  A    between atoms: _225  and  _226
REMARK   97  A    between atoms: _228  and  _230
REMARK   98  A    between atoms: _230  and  _231
REMARK   99  A    between atoms: _230  and  _233
REMARK  100  A    between atoms: _233  and  _234
REMARK  101  A    between atoms: _239  and  _240
REMARK  102  A    between atoms: _242  and  _244
REMARK  103  A    between atoms: _244  and  _245
REMARK  104  A    between atoms: _244  and  _247
REMARK  105  A    between atoms: _247  and  _248
REMARK  106  A    between atoms: _248  and  _249
REMARK  107  A    between atoms: _249  and  _250
REMARK  108  A    between atoms: _250  and  _251
REMARK  109  A    between atoms: _255  and  _257
REMARK  110  A    between atoms: _257  and  _258
REMARK  111  A    between atoms: _257  and  _260
REMARK  112  A    between atoms: _262  and  _264
REMARK  113  A    between atoms: _264  and  _265
REMARK  114  A    between atoms: _264  and  _267
REMARK  115  A    between atoms: _267  and  _268
REMARK  116  A    between atoms: _268  and  _269
REMARK  117  A    between atoms: _272  and  _274
REMARK  118  A    between atoms: _274  and  _275
REMARK  119  A    between atoms: _274  and  _277
REMARK  120  A    between atoms: _277  and  _278
REMARK  121  A    between atoms: _283  and  _285
REMARK  122  A    between atoms: _285  and  _286
REMARK  123  A    between atoms: _289  and  _291
REMARK  124  A    between atoms: _291  and  _292
REMARK  125  A    between atoms: _291  and  _294
REMARK  126  A    between atoms: _294  and  _295
REMARK  127  A    between atoms: _295  and  _296
REMARK  128  A    between atoms: _298  and  _300
REMARK  129  A    between atoms: _300  and  _301
REMARK  130  A    between atoms: _300  and  _303
REMARK  131  A    between atoms: _303  and  _304
REMARK  132  A    between atoms: _314  and  _316
REMARK  133  A    between atoms: _316  and  _317
REMARK  134  A    between atoms: _316  and  _319
REMARK  135  A    between atoms: _319  and  _320
REMARK  136  A    between atoms: _323  and  _325
REMARK  137  A    between atoms: _325  and  _326
REMARK  138  A    between atoms: _325  and  _328
REMARK  139  A    between atoms: _328  and  _329
REMARK  140  A    between atoms: _329  and  _330
REMARK  141  A    between atoms: _335  and  _337
REMARK  142  A    between atoms: _337  and  _338
REMARK  143  A    between atoms: _337  and  _340
REMARK  144  A    between atoms: _340  and  _341
REMARK  145  A    between atoms: _341  and  _342
REMARK  146  A    between atoms: _347  and  _349
REMARK  147  A    between atoms: _349  and  _350
REMARK  148  A    between atoms: _349  and  _352
REMARK  149  A    between atoms: _352  and  _353
REMARK  150  A    between atoms: _359  and  _361
REMARK  151  A    between atoms: _361  and  _362
REMARK  152  A    between atoms: _361  and  _364
REMARK  153  A    between atoms: _366  and  _368
REMARK  154  A    between atoms: _368  and  _369
REMARK  155  A    between atoms: _368  and  _371
REMARK  156  A    between atoms: _371  and  _372
REMARK  157  A    between atoms: _372  and  _373
REMARK  158  A    between atoms: _375  and  _377
REMARK  159  A    between atoms: _377  and  _378
REMARK  160  A    between atoms: _377  and  _380
REMARK  161  A    between atoms: _380  and  _381
REMARK  162  A    between atoms: _381  and  _382
REMARK  163  A    between atoms: _381  and  _383
REMARK  164  A    between atoms: _386  and  _388
REMARK  165  A    between atoms: _388  and  _389
REMARK  166  A    between atoms: _391  and  _393
REMARK  167  A    between atoms: _393  and  _394
REMARK  168  A    between atoms: _393  and  _396
REMARK  169  A    between atoms: _396  and  _397
REMARK  170  A    between atoms: _400  and  _402
REMARK  171  A    between atoms: _402  and  _403
REMARK  172  A    between atoms: _402  and  _405
REMARK  173  A    between atoms: _405  and  _406
REMARK  174  A    between atoms: _409  and  _411
REMARK  175  A    between atoms: _411  and  _412
REMARK  176  A    between atoms: _411  and  _414
REMARK  177  A    between atoms: _414  and  _415
REMARK  178  A    between atoms: _417  and  _419
REMARK  179  A    between atoms: _419  and  _420
REMARK  180  A    between atoms: _419  and  _422
REMARK  181  A    between atoms: _422  and  _423
REMARK  182  A    between atoms: _433  and  _435
REMARK  183  A    between atoms: _435  and  _436
REMARK  184  A    between atoms: _435  and  _438
REMARK  185  A    between atoms: _438  and  _439
REMARK  186  A    between atoms: _439  and  _440
REMARK                            x       y       z     vdW  Elec       q    Type
REMARK                         _______ _______ _______ _____ _____    ______ ____
ROOT
ATOM      1  C   ASN A   1      -8.270 -28.956 -18.140  0.00  0.00    +0.239 C 
ATOM      2  O   ASN A   1      -8.475 -30.116 -17.777  0.00  0.00    -0.274 OA
ATOM      3  N   GLU A   2      -9.204 -28.011 -18.133  0.00  0.00    -0.298 N 
ATOM      4  H   GLU A   2      -8.920 -27.016 -18.237  0.00  0.00    +0.150 HD
ENDROOT
BRANCH   1   5
ATOM      5  CA  ASN A   1      -6.898 -28.530 -18.611  0.00  0.00    +0.154 C 
BRANCH   5   6
ATOM      6  N   ASN A   1      -5.860 -29.019 -17.723  0.00  0.00    -0.238 NA
ATOM      7  H   ASN A   1      -5.976 -29.936 -17.247  0.00  0.00    +0.142 HD
ENDBRANCH   5   6
BRANCH   5   8
ATOM      8  CB  ASN A   1      -6.652 -29.034 -20.045  0.00  0.00    +0.111 C 
BRANCH   8   9
ATOM      9  CG  ASN A   1      -7.564 -28.362 -21.064  0.00  0.00    +0.221 C 
ATOM     10  OD1 ASN A   1      -7.570 -27.130 -21.188  0.00  0.00    -0.275 OA
ATOM     11  ND2 ASN A   1      -8.345 -29.168 -21.798  0.00  0.00    -0.329 N 
ATOM     12 HD21 ASN A   1      -8.306 -30.198 -21.659  0.00  0.00    +0.145 HD
ATOM     13 HD22 ASN A   1      -8.990 -28.763 -22.506  0.00  0.00    +0.145 HD
ENDBRANCH   8   9
ENDBRANCH   5   8
ENDBRANCH   1   5
BRANCH   3  14
ATOM     14  CA  GLU A   2     -10.616 -28.336 -17.983  0.00  0.00    +0.137 C 
BRANCH  14  15
ATOM     15  C   GLU A   2     -10.869 -29.326 -16.845  0.00  0.00    +0.227 C 
ATOM     16  O   GLU A   2     -11.307 -30.459 -17.052  0.00  0.00    -0.286 OA
ENDBRANCH  14  15
BRANCH  14  17
ATOM     17  CB  GLU A   2     -11.172 -28.861 -19.317  0.00  0.00    +0.039 C 
BRANCH  17  18
ATOM     18  CG  GLU A   2     -11.139 -27.812 -20.422  0.00  0.00    +0.116 C 
BRANCH  18  19
ATOM     19  CD  GLU A   2     -11.731 -28.290 -21.744  0.00  0.00    +0.365 C 
ATOM     20  OE2 GLU A   2     -12.678 -27.642 -22.235  0.00  0.00    -0.246 OA
ATOM     21  OE1 GLU A   2     -11.245 -29.298 -22.306  0.00  0.00    -0.246 OA
ENDBRANCH  18  19
ENDBRANCH  17  18
ENDBRANCH  14  17
ENDBRANCH   3  14
TORSDOF 9
REMARK  Name = ../refined-set-2016/3t2q/3t2q_pocket.pdb
REMARK  186 active torsions:
REMARK  status: ('A' for Active; 'I' for Inactive)
REMARK    1  A    between atoms: _1  and  _3
REMARK    2  A    between atoms: _3  and  _4
REMARK    3  A    between atoms: _3  and  _6
REMARK    4  A    between atoms: _6  and  _7
REMARK    5  A    between atoms: _12  and  _13
REMARK    6  A    between atoms: _15  and  _17
REMARK    7  A    between atoms: _17  and  _18
REMARK    8  A    between atoms: _17  and  _20
REMARK    9  A    between atoms: _20  and  _21
REMARK   10  A    between atoms: _24  and  _26
REMARK   11  A    between atoms: _26  and  _27
REMARK   12  A    between atoms: _26  and  _29
REMARK   13  A    between atoms: _29  and  _30
REMARK   14  A    between atoms: _35  and  _37
REMARK   15  A    between atoms: _37  and  _38
REMARK   16  A    between atoms: _37  and  _40
REMARK   17  A    between atoms: _43  and  _45
REMARK   18  A    between atoms: _45  and  _46
REMARK   19  A    between atoms: _45  and  _48
REMARK   20  A    between atoms: _48  and  _49
REMARK   21  A    between atoms: _52  and  _54
REMARK   22  A    between atoms: _54  and  _55
REMARK   23  A    between atoms: _54  and  _57
REMARK   24  A    between atoms: _57  and  _58
REMARK   25  A    between atoms: _58  and  _59
REMARK   26  A    between atoms: _64  and  _66
REMARK   27  A    between atoms: _66  and  _67
REMARK   28  A    between atoms: _66  and  _69
REMARK   29  A    between atoms: _69  and  _70
REMARK   30  A    between atoms: _73  and  _75
REMARK   31  A    between atoms: _75  and  _76
REMARK   32  A    between atoms: _75  and  _78
REMARK   33  A    between atoms: _78  and  _79
REMARK   34  A    between atoms: _79  and  _80
REMARK   35  A    between atoms: _82  and  _84
REMARK   36  A    between atoms: _84  and  _85
REMARK   37  A    between atoms: _84  and  _87
REMARK   38  A    between atoms: _87  and  _88
REMARK   39  A    between atoms: _88  and  _89
REMARK   40  A    between atoms: _89  and  _90
REMARK   41  A    between atoms: _99  and  _101
REMARK   42  A    between atoms: _101  and  _102
REMARK   43  A    between atoms: _101  and  _104
REMARK   44  A    between atoms: _104  and  _105
REMARK   45  A    between atoms: _110  and  _112
REMARK   46  A    between atoms: _112  and  _113
REMARK   47  A    between atoms: _112  and  _115
REMARK   48  A    between atoms: _115  and  _116
REMARK   49  A    between atoms: _121  and  _123
REMARK   50  A    between atoms: _123  and  _124
REMARK   51  A    between atoms: _123  and  _126
REMARK   52  A    between atoms: _126  and  _127
REMARK   53  A    between atoms: _127  and  _128
REMARK   54  A    between atoms: _128  and  _129
REMARK   55  A    between atoms: _138  and  _140
REMARK   56  A    between atoms: _140  and  _141
REMARK   57  A    between atoms: _140  and  _143
REMARK   58  A    between atoms: _143  and  _144
REMARK   59  A    between atoms: _146  and  _148
REMARK   60  A    between atoms: _148  and  _149
REMARK   61  A    between atoms: _148  and  _151
REMARK   62  A    between atoms: _151  and  _152
REMARK   63  A    between atoms: _157  and  _159
REMARK   64  A    between atoms: _159  and  _160
REMARK   65  A    between atoms: _159  and  _162
REMARK   66  A    between atoms: _162  and  _163
REMARK   67  A    between atoms: _163  and  _164
REMARK   68  A    between atoms: _167  and  _169
REMARK   69  A    between atoms: _169  and  _170
REMARK   70  A    between atoms: _169  and  _172
REMARK   71  A    between atoms: _172  and  _173
REMARK   72  A    between atoms: _173  and  _174
REMARK   73  A    between atoms: _177  and  _179
REMARK   74  A    between atoms: _179  and  _180
REMARK   75  A    between atoms: _179  and  _182
REMARK   76  A    between atoms: _182  and  _183
REMARK   77  A    between atoms: _184  and  MG_443
REMARK   78  A    between atoms: _188  and  _190
REMARK   79  A    between atoms: _190  and  _191
REMARK   80  A    between atoms: _190  and  _193
REMARK   81  A    between atoms: _193  and  _194
REMARK   82  A    between atoms: _199  and  _201
REMARK   83  A    between atoms: _201  and  _202
REMARK   84  A    between atoms: _201  and  _204
REMARK   85  A    between atoms: _204  and  _205
REMARK   86  A    between atoms: _205  and  _206
REMARK   87  A    between atoms: _209  and  _211
REMARK   88  A    between atoms: _211  and  _212
REMARK   89  A    between atoms: _211  and  _214
REMARK   90  A    between atoms: _214  and  _215
REMARK   91  A    between atoms: _215  and  _216
REMARK   92  A    between atoms: _219  and  _221
REMARK   93  A    between atoms: _221  and  _222
REMARK   94  A    between atoms: _221  and  _224
REMARK   95  A    between atoms: _224  and  _225
REMARK   96  A    between atoms: _225  and  _226
REMARK   97  A    between atoms: _228  and  _230
REMARK   98  A    between atoms: _230  and  _231
REMARK   99  A    between atoms: _230  and  _233
REMARK  100  A    between atoms: _233  and  _234
REMARK  101  A    between atoms: _239  and  _240
REMARK  102  A    between atoms: _242  and  _244
REMARK  103  A    between atoms: _244  and  _245
REMARK  104  A    between atoms: _244  and  _247
REMARK  105  A    between atoms: _247  and  _248
REMARK  106  A    between atoms: _248  and  _249
REMARK  107  A    between atoms: _249  and  _250
REMARK  108  A    between atoms: _250  and  _251
REMARK  109  A    between atoms: _255  and  _257
REMARK  110  A    between atoms: _257  and  _258
REMARK  111  A    between atoms: _257  and  _260
REMARK  112  A    between atoms: _262  and  _264
REMARK  113  A    between atoms: _264  and  _265
REMARK  114  A    between atoms: _264  and  _267
REMARK  115  A    between atoms: _267  and  _268
REMARK  116  A    between atoms: _268  and  _269
REMARK  117  A    between atoms: _272  and  _274
REMARK  118  A    between atoms: _274  and  _275
REMARK  119  A    between atoms: _274  and  _277
REMARK  120  A    between atoms: _277  and  _278
REMARK  121  A    between atoms: _283  and  _285
REMARK  122  A    between atoms: _285  and  _286
REMARK  123  A    between atoms: _289  and  _291
REMARK  124  A    between atoms: _291  and  _292
REMARK  125  A    between atoms: _291  and  _294
REMARK  126  A    between atoms: _294  and  _295
REMARK  127  A    between atoms: _295  and  _296
REMARK  128  A    between atoms: _298  and  _300
REMARK  129  A    between atoms: _300  and  _301
REMARK  130  A    between atoms: _300  and  _303
REMARK  131  A    between atoms: _303  and  _304
REMARK  132  A    between atoms: _314  and  _316
REMARK  133  A    between atoms: _316  and  _317
REMARK  134  A    between atoms: _316  and  _319
REMARK  135  A    between atoms: _319  and  _320
REMARK  136  A    between atoms: _323  and  _325
REMARK  137  A    between atoms: _325  and  _326
REMARK  138  A    between atoms: _325  and  _328
REMARK  139  A    between atoms: _328  and  _329
REMARK  140  A    between atoms: _329  and  _330
REMARK  141  A    between atoms: _335  and  _337
REMARK  142  A    between atoms: _337  and  _338
REMARK  143  A    between atoms: _337  and  _340
REMARK  144  A    between atoms: _340  and  _341
REMARK  145  A    between atoms: _341  and  _342
REMARK  146  A    between atoms: _347  and  _349
REMARK  147  A    between atoms: _349  and  _350
REMARK  148  A    between atoms: _349  and  _352
REMARK  149  A    between atoms: _352  and  _353
REMARK  150  A    between atoms: _359  and  _361
REMARK  151  A    between atoms: _361  and  _362
REMARK  152  A    between atoms: _361  and  _364
REMARK  153  A    between atoms: _366  and  _368
REMARK  154  A    between atoms: _368  and  _369
REMARK  155  A    between atoms: _368  and  _371
REMARK  156  A    between atoms: _371  and  _372
REMARK  157  A    between atoms: _372  and  _373
REMARK  158  A    between atoms: _375  and  _377
REMARK  159  A    between atoms: _377  and  _378
REMARK  160  A    between atoms: _377  and  _380
REMARK  161  A    between atoms: _380  and  _381
REMARK  162  A    between atoms: _381  and  _382
REMARK  163  A    between atoms: _381  and  _383
REMARK  164  A    between atoms: _386  and  _388
REMARK  165  A    between atoms: _388  and  _389
REMARK  166  A    between atoms: _391  and  _393
REMARK  167  A    between atoms: _393  and  _394
REMARK  168  A    between atoms: _393  and  _396
REMARK  169  A    between atoms: _396  and  _397
REMARK  170  A    between atoms: _400  and  _402
REMARK  171  A    between atoms: _402  and  _403
REMARK  172  A    between atoms: _402  and  _405
REMARK  173  A    between atoms: _405  and  _406
REMARK  174  A    between atoms: _409  and  _411
REMARK  175  A    between atoms: _411  and  _412
REMARK  176  A    between atoms: _411  and  _414
REMARK  177  A    between atoms: _414  and  _415
REMARK  178  A    between atoms: _417  and  _419
REMARK  179  A    between atoms: _419  and  _420
REMARK  180  A    between atoms: _419  and  _422
REMARK  181  A    between atoms: _422  and  _423
REMARK  182  A    between atoms: _433  and  _435
REMARK  183  A    between atoms: _435  and  _436
REMARK  184  A    between atoms: _435  and  _438
REMARK  185  A    between atoms: _438  and  _439
REMARK  186  A    between atoms: _439  and  _440
REMARK                            x       y       z     vdW  Elec       q    Type
REMARK                         _______ _______ _______ _____ _____    ______ ____
ROOT
ATOM      1  CA  GLU A   1      -7.808 -21.845 -17.316  0.00  0.00    +0.134 C 
ENDROOT
BRANCH   1   2
ATOM      2  N   GLU A   1      -6.563 -22.433 -16.830  0.00  0.00    -0.239 NA
ATOM      3  H   GLU A   1      -6.229 -23.325 -17.247  0.00  0.00    +0.142 HD
ENDBRANCH   1   2
BRANCH   1   4
ATOM      4  C   GLU A   1      -9.047 -22.217 -16.511  0.00  0.00    +0.224 C 
ATOM      5  O   GLU A   1     -10.009 -21.454 -16.474  0.00  0.00    -0.287 OA
ENDBRANCH   1   4
BRANCH   1   6
ATOM      6  CB  GLU A   1      -8.004 -22.166 -18.793  0.00  0.00    +0.037 C 
BRANCH   6   7
ATOM      7  CG  GLU A   1      -9.307 -21.630 -19.414  0.00  0.00    +0.116 C 
BRANCH   7   8
ATOM      8  CD  GLU A   1     -10.520 -22.527 -19.193  0.00  0.00    +0.365 C 
ATOM      9  OE2 GLU A   1     -10.352 -23.746 -18.941  0.00  0.00    -0.246 OA
ATOM     10  OE1 GLU A   1     -11.650 -22.002 -19.289  0.00  0.00    -0.246 OA
ENDBRANCH   7   8
ENDBRANCH   6   7
ENDBRANCH   1   6
TORSDOF 5
REMARK  Name = ../refined-set-2016/3t2q/3t2q_pocket.pdb
REMARK  186 active torsions:
REMARK  status: ('A' for Active; 'I' for Inactive)
REMARK    1  A    between atoms: _1  and  _3
REMARK    2  A    between atoms: _3  and  _4
REMARK    3  A    between atoms: _3  and  _6
REMARK    4  A    between atoms: _6  and  _7
REMARK    5  A    between atoms: _12  and  _13
REMARK    6  A    between atoms: _15  and  _17
REMARK    7  A    between atoms: _17  and  _18
REMARK    8  A    between atoms: _17  and  _20
REMARK    9  A    between atoms: _20  and  _21
REMARK   10  A    between atoms: _24  and  _26
REMARK   11  A    between atoms: _26  and  _27
REMARK   12  A    between atoms: _26  and  _29
REMARK   13  A    between atoms: _29  and  _30
REMARK   14  A    between atoms: _35  and  _37
REMARK   15  A    between atoms: _37  and  _38
REMARK   16  A    between atoms: _37  and  _40
REMARK   17  A    between atoms: _43  and  _45
REMARK   18  A    between atoms: _45  and  _46
REMARK   19  A    between atoms: _45  and  _48
REMARK   20  A    between atoms: _48  and  _49
REMARK   21  A    between atoms: _52  and  _54
REMARK   22  A    between atoms: _54  and  _55
REMARK   23  A    between atoms: _54  and  _57
REMARK   24  A    between atoms: _57  and  _58
REMARK   25  A    between atoms: _58  and  _59
REMARK   26  A    between atoms: _64  and  _66
REMARK   27  A    between atoms: _66  and  _67
REMARK   28  A    between atoms: _66  and  _69
REMARK   29  A    between atoms: _69  and  _70
REMARK   30  A    between atoms: _73  and  _75
REMARK   31  A    between atoms: _75  and  _76
REMARK   32  A    between atoms: _75  and  _78
REMARK   33  A    between atoms: _78  and  _79
REMARK   34  A    between atoms: _79  and  _80
REMARK   35  A    between atoms: _82  and  _84
REMARK   36  A    between atoms: _84  and  _85
REMARK   37  A    between atoms: _84  and  _87
REMARK   38  A    between atoms: _87  and  _88
REMARK   39  A    between atoms: _88  and  _89
REMARK   40  A    between atoms: _89  and  _90
REMARK   41  A    between atoms: _99  and  _101
REMARK   42  A    between atoms: _101  and  _102
REMARK   43  A    between atoms: _101  and  _104
REMARK   44  A    between atoms: _104  and  _105
REMARK   45  A    between atoms: _110  and  _112
REMARK   46  A    between atoms: _112  and  _113
REMARK   47  A    between atoms: _112  and  _115
REMARK   48  A    between atoms: _115  and  _116
REMARK   49  A    between atoms: _121  and  _123
REMARK   50  A    between atoms: _123  and  _124
REMARK   51  A    between atoms: _123  and  _126
REMARK   52  A    between atoms: _126  and  _127
REMARK   53  A    between atoms: _127  and  _128
REMARK   54  A    between atoms: _128  and  _129
REMARK   55  A    between atoms: _138  and  _140
REMARK   56  A    between atoms: _140  and  _141
REMARK   57  A    between atoms: _140  and  _143
REMARK   58  A    between atoms: _143  and  _144
REMARK   59  A    between atoms: _146  and  _148
REMARK   60  A    between atoms: _148  and  _149
REMARK   61  A    between atoms: _148  and  _151
REMARK   62  A    between atoms: _151  and  _152
REMARK   63  A    between atoms: _157  and  _159
REMARK   64  A    between atoms: _159  and  _160
REMARK   65  A    between atoms: _159  and  _162
REMARK   66  A    between atoms: _162  and  _163
REMARK   67  A    between atoms: _163  and  _164
REMARK   68  A    between atoms: _167  and  _169
REMARK   69  A    between atoms: _169  and  _170
REMARK   70  A    between atoms: _169  and  _172
REMARK   71  A    between atoms: _172  and  _173
REMARK   72  A    between atoms: _173  and  _174
REMARK   73  A    between atoms: _177  and  _179
REMARK   74  A    between atoms: _179  and  _180
REMARK   75  A    between atoms: _179  and  _182
REMARK   76  A    between atoms: _182  and  _183
REMARK   77  A    between atoms: _184  and  MG_443
REMARK   78  A    between atoms: _188  and  _190
REMARK   79  A    between atoms: _190  and  _191
REMARK   80  A    between atoms: _190  and  _193
REMARK   81  A    between atoms: _193  and  _194
REMARK   82  A    between atoms: _199  and  _201
REMARK   83  A    between atoms: _201  and  _202
REMARK   84  A    between atoms: _201  and  _204
REMARK   85  A    between atoms: _204  and  _205
REMARK   86  A    between atoms: _205  and  _206
REMARK   87  A    between atoms: _209  and  _211
REMARK   88  A    between atoms: _211  and  _212
REMARK   89  A    between atoms: _211  and  _214
REMARK   90  A    between atoms: _214  and  _215
REMARK   91  A    between atoms: _215  and  _216
REMARK   92  A    between atoms: _219  and  _221
REMARK   93  A    between atoms: _221  and  _222
REMARK   94  A    between atoms: _221  and  _224
REMARK   95  A    between atoms: _224  and  _225
REMARK   96  A    between atoms: _225  and  _226
REMARK   97  A    between atoms: _228  and  _230
REMARK   98  A    between atoms: _230  and  _231
REMARK   99  A    between atoms: _230  and  _233
REMARK  100  A    between atoms: _233  and  _234
REMARK  101  A    between atoms: _239  and  _240
REMARK  102  A    between atoms: _242  and  _244
REMARK  103  A    between atoms: _244  and  _245
REMARK  104  A    between atoms: _244  and  _247
REMARK  105  A    between atoms: _247  and  _248
REMARK  106  A    between atoms: _248  and  _249
REMARK  107  A    between atoms: _249  and  _250
REMARK  108  A    between atoms: _250  and  _251
REMARK  109  A    between atoms: _255  and  _257
REMARK  110  A    between atoms: _257  and  _258
REMARK  111  A    between atoms: _257  and  _260
REMARK  112  A    between atoms: _262  and  _264
REMARK  113  A    between atoms: _264  and  _265
REMARK  114  A    between atoms: _264  and  _267
REMARK  115  A    between atoms: _267  and  _268
REMARK  116  A    between atoms: _268  and  _269
REMARK  117  A    between atoms: _272  and  _274
REMARK  118  A    between atoms: _274  and  _275
REMARK  119  A    between atoms: _274  and  _277
REMARK  120  A    between atoms: _277  and  _278
REMARK  121  A    between atoms: _283  and  _285
REMARK  122  A    between atoms: _285  and  _286
REMARK  123  A    between atoms: _289  and  _291
REMARK  124  A    between atoms: _291  and  _292
REMARK  125  A    between atoms: _291  and  _294
REMARK  126  A    between atoms: _294  and  _295
REMARK  127  A    between atoms: _295  and  _296
REMARK  128  A    between atoms: _298  and  _300
REMARK  129  A    between atoms: _300  and  _301
REMARK  130  A    between atoms: _300  and  _303
REMARK  131  A    between atoms: _303  and  _304
REMARK  132  A    between atoms: _314  and  _316
REMARK  133  A    between atoms: _316  and  _317
REMARK  134  A    between atoms: _316  and  _319
REMARK  135  A    between atoms: _319  and  _320
REMARK  136  A    between atoms: _323  and  _325
REMARK  137  A    between atoms: _325  and  _326
REMARK  138  A    between atoms: _325  and  _328
REMARK  139  A    between atoms: _328  and  _329
REMARK  140  A    between atoms: _329  and  _330
REMARK  141  A    between atoms: _335  and  _337
REMARK  142  A    between atoms: _337  and  _338
REMARK  143  A    between atoms: _337  and  _340
REMARK  144  A    between atoms: _340  and  _341
REMARK  145  A    between atoms: _341  and  _342
REMARK  146  A    between atoms: _347  and  _349
REMARK  147  A    between atoms: _349  and  _350
REMARK  148  A    between atoms: _349  and  _352
REMARK  149  A    between atoms: _352  and  _353
REMARK  150  A    between atoms: _359  and  _361
REMARK  151  A    between atoms: _361  and  _362
REMARK  152  A    between atoms: _361  and  _364
REMARK  153  A    between atoms: _366  and  _368
REMARK  154  A    between atoms: _368  and  _369
REMARK  155  A    between atoms: _368  and  _371
REMARK  156  A    between atoms: _371  and  _372
REMARK  157  A    between atoms: _372  and  _373
REMARK  158  A    between atoms: _375  and  _377
REMARK  159  A    between atoms: _377  and  _378
REMARK  160  A    between atoms: _377  and  _380
REMARK  161  A    between atoms: _380  and  _381
REMARK  162  A    between atoms: _381  and  _382
REMARK  163  A    between atoms: _381  and  _383
REMARK  164  A    between atoms: _386  and  _388
REMARK  165  A    between atoms: _388  and  _389
REMARK  166  A    between atoms: _391  and  _393
REMARK  167  A    between atoms: _393  and  _394
REMARK  168  A    between atoms: _393  and  _396
REMARK  169  A    between atoms: _396  and  _397
REMARK  170  A    between atoms: _400  and  _402
REMARK  171  A    between atoms: _402  and  _403
REMARK  172  A    between atoms: _402  and  _405
REMARK  173  A    between atoms: _405  and  _406
REMARK  174  A    between atoms: _409  and  _411
REMARK  175  A    between atoms: _411  and  _412
REMARK  176  A    between atoms: _411  and  _414
REMARK  177  A    between atoms: _414  and  _415
REMARK  178  A    between atoms: _417  and  _419
REMARK  179  A    between atoms: _419  and  _420
REMARK  180  A    between atoms: _419  and  _422
REMARK  181  A    between atoms: _422  and  _423
REMARK  182  A    between atoms: _433  and  _435
REMARK  183  A    between atoms: _435  and  _436
REMARK  184  A    between atoms: _435  and  _438
REMARK  185  A    between atoms: _438  and  _439
REMARK  186  A    between atoms: _439  and  _440
REMARK                            x       y       z     vdW  Elec       q    Type
REMARK                         _______ _______ _______ _____ _____    ______ ____
ROOT
ATOM      1  CA  TYR A   2     -12.882 -18.959 -26.915  0.00  0.00    +0.141 C 
ENDROOT
BRANCH   1   4
ATOM      2  C   MET A   1     -11.988 -19.856 -24.818  0.00  0.00    +0.238 C 
ATOM      3  O   MET A   1     -13.097 -19.893 -24.279  0.00  0.00    -0.274 OA
ATOM      4  N   TYR A   2     -11.782 -19.356 -26.030  0.00  0.00    -0.298 N 
ATOM      5  H   TYR A   2     -10.804 -19.241 -26.365  0.00  0.00    +0.150 HD
BRANCH   2   6
ATOM      6  CA  MET A   1     -10.744 -20.366 -24.095  0.00  0.00    +0.146 C 
BRANCH   6   7
ATOM      7  N   MET A   1     -10.591 -19.687 -22.830  0.00  0.00    -0.238 NA
ATOM      8  H   MET A   1     -11.280 -19.860 -22.071  0.00  0.00    +0.142 HD
ENDBRANCH   6   7
BRANCH   6   9
ATOM      9  CB  MET A   1     -10.762 -21.881 -23.925  0.00  0.00    +0.038 C 
BRANCH   9  10
ATOM     10  CG  MET A   1     -11.753 -22.431 -22.912  0.00  0.00    +0.060 C 
BRANCH  10  11
ATOM     11  SD  MET A   1     -11.593 -24.231 -22.713  0.00  0.00    -0.139 S 
ATOM     12  CE  MET A   1      -9.895 -24.387 -22.188  0.00  0.00    +0.069 C 
ENDBRANCH  10  11
ENDBRANCH   9  10
ENDBRANCH   6   9
ENDBRANCH   2   6
ENDBRANCH   1   4
BRANCH   1  13
ATOM     13  C   TYR A   2     -13.639 -17.749 -26.371  0.00  0.00    +0.227 C 
ATOM     14  O   TYR A   2     -14.835 -17.593 -26.616  0.00  0.00    -0.286 OA
ENDBRANCH   1  13
BRANCH   1  15
ATOM     15  CB  TYR A   2     -13.812 -20.160 -27.213  0.00  0.00    +0.054 C 
BRANCH  15  16
ATOM     16  CG  TYR A   2     -13.012 -21.389 -27.605  0.00  0.00    -0.020 A 
ATOM     17  CD2 TYR A   2     -12.822 -22.440 -26.704  0.00  0.00    -0.001 A 
ATOM     18  CE2 TYR A   2     -12.064 -23.560 -27.046  0.00  0.00    +0.036 A 
ATOM     19  CZ  TYR A   2     -11.477 -23.639 -28.297  0.00  0.00    +0.134 A 
ATOM     20  CE1 TYR A   2     -11.636 -22.616 -29.211  0.00  0.00    +0.036 A 
ATOM     21  CD1 TYR A   2     -12.410 -21.484 -28.856  0.00  0.00    -0.001 A 
BRANCH  19  22
ATOM     22  OH  TYR A   2     -10.723 -24.744 -28.617  0.00  0.00    -0.506 OA
ATOM     23  HH  TYR A   2      -9.966 -24.820 -27.984  0.00  0.00    +0.292 HD
ENDBRANCH  19  22
ENDBRANCH  15  16
ENDBRANCH   1  15
TORSDOF 10
REMARK  Name = ../refined-set-2016/3t2q/3t2q_pocket.pdb
REMARK  186 active torsions:
REMARK  status: ('A' for Active; 'I' for Inactive)
REMARK    1  A    between atoms: _1  and  _3
REMARK    2  A    between atoms: _3  and  _4
REMARK    3  A    between atoms: _3  and  _6
REMARK    4  A    between atoms: _6  and  _7
REMARK    5  A    between atoms: _12  and  _13
REMARK    6  A    between atoms: _15  and  _17
REMARK    7  A    between atoms: _17  and  _18
REMARK    8  A    between atoms: _17  and  _20
REMARK    9  A    between atoms: _20  and  _21
REMARK   10  A    between atoms: _24  and  _26
REMARK   11  A    between atoms: _26  and  _27
REMARK   12  A    between atoms: _26  and  _29
REMARK   13  A    between atoms: _29  and  _30
REMARK   14  A    between atoms: _35  and  _37
REMARK   15  A    between atoms: _37  and  _38
REMARK   16  A    between atoms: _37  and  _40
REMARK   17  A    between atoms: _43  and  _45
REMARK   18  A    between atoms: _45  and  _46
REMARK   19  A    between atoms: _45  and  _48
REMARK   20  A    between atoms: _48  and  _49
REMARK   21  A    between atoms: _52  and  _54
REMARK   22  A    between atoms: _54  and  _55
REMARK   23  A    between atoms: _54  and  _57
REMARK   24  A    between atoms: _57  and  _58
REMARK   25  A    between atoms: _58  and  _59
REMARK   26  A    between atoms: _64  and  _66
REMARK   27  A    between atoms: _66  and  _67
REMARK   28  A    between atoms: _66  and  _69
REMARK   29  A    between atoms: _69  and  _70
REMARK   30  A    between atoms: _73  and  _75
REMARK   31  A    between atoms: _75  and  _76
REMARK   32  A    between atoms: _75  and  _78
REMARK   33  A    between atoms: _78  and  _79
REMARK   34  A    between atoms: _79  and  _80
REMARK   35  A    between atoms: _82  and  _84
REMARK   36  A    between atoms: _84  and  _85
REMARK   37  A    between atoms: _84  and  _87
REMARK   38  A    between atoms: _87  and  _88
REMARK   39  A    between atoms: _88  and  _89
REMARK   40  A    between atoms: _89  and  _90
REMARK   41  A    between atoms: _99  and  _101
REMARK   42  A    between atoms: _101  and  _102
REMARK   43  A    between atoms: _101  and  _104
REMARK   44  A    between atoms: _104  and  _105
REMARK   45  A    between atoms: _110  and  _112
REMARK   46  A    between atoms: _112  and  _113
REMARK   47  A    between atoms: _112  and  _115
REMARK   48  A    between atoms: _115  and  _116
REMARK   49  A    between atoms: _121  and  _123
REMARK   50  A    between atoms: _123  and  _124
REMARK   51  A    between atoms: _123  and  _126
REMARK   52  A    between atoms: _126  and  _127
REMARK   53  A    between atoms: _127  and  _128
REMARK   54  A    between atoms: _128  and  _129
REMARK   55  A    between atoms: _138  and  _140
REMARK   56  A    between atoms: _140  and  _141
REMARK   57  A    between atoms: _140  and  _143
REMARK   58  A    between atoms: _143  and  _144
REMARK   59  A    between atoms: _146  and  _148
REMARK   60  A    between atoms: _148  and  _149
REMARK   61  A    between atoms: _148  and  _151
REMARK   62  A    between atoms: _151  and  _152
REMARK   63  A    between atoms: _157  and  _159
REMARK   64  A    between atoms: _159  and  _160
REMARK   65  A    between atoms: _159  and  _162
REMARK   66  A    between atoms: _162  and  _163
REMARK   67  A    between atoms: _163  and  _164
REMARK   68  A    between atoms: _167  and  _169
REMARK   69  A    between atoms: _169  and  _170
REMARK   70  A    between atoms: _169  and  _172
REMARK   71  A    between atoms: _172  and  _173
REMARK   72  A    between atoms: _173  and  _174
REMARK   73  A    between atoms: _177  and  _179
REMARK   74  A    between atoms: _179  and  _180
REMARK   75  A    between atoms: _179  and  _182
REMARK   76  A    between atoms: _182  and  _183
REMARK   77  A    between atoms: _184  and  MG_443
REMARK   78  A    between atoms: _188  and  _190
REMARK   79  A    between atoms: _190  and  _191
REMARK   80  A    between atoms: _190  and  _193
REMARK   81  A    between atoms: _193  and  _194
REMARK   82  A    between atoms: _199  and  _201
REMARK   83  A    between atoms: _201  and  _202
REMARK   84  A    between atoms: _201  and  _204
REMARK   85  A    between atoms: _204  and  _205
REMARK   86  A    between atoms: _205  and  _206
REMARK   87  A    between atoms: _209  and  _211
REMARK   88  A    between atoms: _211  and  _212
REMARK   89  A    between atoms: _211  and  _214
REMARK   90  A    between atoms: _214  and  _215
REMARK   91  A    between atoms: _215  and  _216
REMARK   92  A    between atoms: _219  and  _221
REMARK   93  A    between atoms: _221  and  _222
REMARK   94  A    between atoms: _221  and  _224
REMARK   95  A    between atoms: _224  and  _225
REMARK   96  A    between atoms: _225  and  _226
REMARK   97  A    between atoms: _228  and  _230
REMARK   98  A    between atoms: _230  and  _231
REMARK   99  A    between atoms: _230  and  _233
REMARK  100  A    between atoms: _233  and  _234
REMARK  101  A    between atoms: _239  and  _240
REMARK  102  A    between atoms: _242  and  _244
REMARK  103  A    between atoms: _244  and  _245
REMARK  104  A    between atoms: _244  and  _247
REMARK  105  A    between atoms: _247  and  _248
REMARK  106  A    between atoms: _248  and  _249
REMARK  107  A    between atoms: _249  and  _250
REMARK  108  A    between atoms: _250  and  _251
REMARK  109  A    between atoms: _255  and  _257
REMARK  110  A    between atoms: _257  and  _258
REMARK  111  A    between atoms: _257  and  _260
REMARK  112  A    between atoms: _262  and  _264
REMARK  113  A    between atoms: _264  and  _265
REMARK  114  A    between atoms: _264  and  _267
REMARK  115  A    between atoms: _267  and  _268
REMARK  116  A    between atoms: _268  and  _269
REMARK  117  A    between atoms: _272  and  _274
REMARK  118  A    between atoms: _274  and  _275
REMARK  119  A    between atoms: _274  and  _277
REMARK  120  A    between atoms: _277  and  _278
REMARK  121  A    between atoms: _283  and  _285
REMARK  122  A    between atoms: _285  and  _286
REMARK  123  A    between atoms: _289  and  _291
REMARK  124  A    between atoms: _291  and  _292
REMARK  125  A    between atoms: _291  and  _294
REMARK  126  A    between atoms: _294  and  _295
REMARK  127  A    between atoms: _295  and  _296
REMARK  128  A    between atoms: _298  and  _300
REMARK  129  A    between atoms: _300  and  _301
REMARK  130  A    between atoms: _300  and  _303
REMARK  131  A    between atoms: _303  and  _304
REMARK  132  A    between atoms: _314  and  _316
REMARK  133  A    between atoms: _316  and  _317
REMARK  134  A    between atoms: _316  and  _319
REMARK  135  A    between atoms: _319  and  _320
REMARK  136  A    between atoms: _323  and  _325
REMARK  137  A    between atoms: _325  and  _326
REMARK  138  A    between atoms: _325  and  _328
REMARK  139  A    between atoms: _328  and  _329
REMARK  140  A    between atoms: _329  and  _330
REMARK  141  A    between atoms: _335  and  _337
REMARK  142  A    between atoms: _337  and  _338
REMARK  143  A    between atoms: _337  and  _340
REMARK  144  A    between atoms: _340  and  _341
REMARK  145  A    between atoms: _341  and  _342
REMARK  146  A    between atoms: _347  and  _349
REMARK  147  A    between atoms: _349  and  _350
REMARK  148  A    between atoms: _349  and  _352
REMARK  149  A    between atoms: _352  and  _353
REMARK  150  A    between atoms: _359  and  _361
REMARK  151  A    between atoms: _361  and  _362
REMARK  152  A    between atoms: _361  and  _364
REMARK  153  A    between atoms: _366  and  _368
REMARK  154  A    between atoms: _368  and  _369
REMARK  155  A    between atoms: _368  and  _371
REMARK  156  A    between atoms: _371  and  _372
REMARK  157  A    between atoms: _372  and  _373
REMARK  158  A    between atoms: _375  and  _377
REMARK  159  A    between atoms: _377  and  _378
REMARK  160  A    between atoms: _377  and  _380
REMARK  161  A    between atoms: _380  and  _381
REMARK  162  A    between atoms: _381  and  _382
REMARK  163  A    between atoms: _381  and  _383
REMARK  164  A    between atoms: _386  and  _388
REMARK  165  A    between atoms: _388  and  _389
REMARK  166  A    between atoms: _391  and  _393
REMARK  167  A    between atoms: _393  and  _394
REMARK  168  A    between atoms: _393  and  _396
REMARK  169  A    between atoms: _396  and  _397
REMARK  170  A    between atoms: _400  and  _402
REMARK  171  A    between atoms: _402  and  _403
REMARK  172  A    between atoms: _402  and  _405
REMARK  173  A    between atoms: _405  and  _406
REMARK  174  A    between atoms: _409  and  _411
REMARK  175  A    between atoms: _411  and  _412
REMARK  176  A    between atoms: _411  and  _414
REMARK  177  A    between atoms: _414  and  _415
REMARK  178  A    between atoms: _417  and  _419
REMARK  179  A    between atoms: _419  and  _420
REMARK  180  A    between atoms: _419  and  _422
REMARK  181  A    between atoms: _422  and  _423
REMARK  182  A    between atoms: _433  and  _435
REMARK  183  A    between atoms: _435  and  _436
REMARK  184  A    between atoms: _435  and  _438
REMARK  185  A    between atoms: _438  and  _439
REMARK  186  A    between atoms: _439  and  _440
REMARK                            x       y       z     vdW  Elec       q    Type
REMARK                         _______ _______ _______ _____ _____    ______ ____
ROOT
ATOM      1  CG  LYS A   1     -16.132 -17.880 -21.797  0.00  0.00    -0.000 C 
ENDROOT
BRANCH   1   2
ATOM      2  CB  LYS A   1     -16.298 -16.396 -22.119  0.00  0.00    +0.025 C 
BRANCH   2   3
ATOM      3  CA  LYS A   1     -16.268 -15.454 -20.913  0.00  0.00    +0.133 C 
BRANCH   3   4
ATOM      4  N   LYS A   1     -17.354 -15.729 -20.006  0.00  0.00    -0.239 NA
ATOM      5  H   LYS A   1     -18.318 -15.818 -20.386  0.00  0.00    +0.142 HD
ENDBRANCH   3   4
BRANCH   3   6
ATOM      6  C   LYS A   1     -16.475 -14.025 -21.368  0.00  0.00    +0.224 C 
ATOM      7  O   LYS A   1     -17.203 -13.761 -22.333  0.00  0.00    -0.287 OA
ENDBRANCH   3   6
ENDBRANCH   2   3
ENDBRANCH   1   2
BRANCH   1   8
ATOM      8  CD  LYS A   1     -15.810 -18.612 -23.095  0.00  0.00    -0.024 C 
BRANCH   8   9
ATOM      9  CE  LYS A   1     -15.977 -20.121 -22.977  0.00  0.00    -0.086 C 
BRANCH   9  10
ATOM     10  NZ  LYS A   1     -15.003 -20.664 -22.034  0.00  0.00    +0.380 N 
ATOM     11  HZ1 LYS A   1     -15.148 -20.231 -21.100  0.00  0.00    -0.089 HD
ATOM     12  HZ2 LYS A   1     -15.128 -21.694 -21.963  0.00  0.00    -0.089 HD
ATOM     13  HZ3 LYS A   1     -14.042 -20.453 -22.370  0.00  0.00    -0.089 HD
ENDBRANCH   9  10
ENDBRANCH   8   9
ENDBRANCH   1   8
TORSDOF 7
REMARK  Name = ../refined-set-2016/3t2q/3t2q_pocket.pdb
REMARK  186 active torsions:
REMARK  status: ('A' for Active; 'I' for Inactive)
REMARK    1  A    between atoms: _1  and  _3
REMARK    2  A    between atoms: _3  and  _4
REMARK    3  A    between atoms: _3  and  _6
REMARK    4  A    between atoms: _6  and  _7
REMARK    5  A    between atoms: _12  and  _13
REMARK    6  A    between atoms: _15  and  _17
REMARK    7  A    between atoms: _17  and  _18
REMARK    8  A    between atoms: _17  and  _20
REMARK    9  A    between atoms: _20  and  _21
REMARK   10  A    between atoms: _24  and  _26
REMARK   11  A    between atoms: _26  and  _27
REMARK   12  A    between atoms: _26  and  _29
REMARK   13  A    between atoms: _29  and  _30
REMARK   14  A    between atoms: _35  and  _37
REMARK   15  A    between atoms: _37  and  _38
REMARK   16  A    between atoms: _37  and  _40
REMARK   17  A    between atoms: _43  and  _45
REMARK   18  A    between atoms: _45  and  _46
REMARK   19  A    between atoms: _45  and  _48
REMARK   20  A    between atoms: _48  and  _49
REMARK   21  A    between atoms: _52  and  _54
REMARK   22  A    between atoms: _54  and  _55
REMARK   23  A    between atoms: _54  and  _57
REMARK   24  A    between atoms: _57  and  _58
REMARK   25  A    between atoms: _58  and  _59
REMARK   26  A    between atoms: _64  and  _66
REMARK   27  A    between atoms: _66  and  _67
REMARK   28  A    between atoms: _66  and  _69
REMARK   29  A    between atoms: _69  and  _70
REMARK   30  A    between atoms: _73  and  _75
REMARK   31  A    between atoms: _75  and  _76
REMARK   32  A    between atoms: _75  and  _78
REMARK   33  A    between atoms: _78  and  _79
REMARK   34  A    between atoms: _79  and  _80
REMARK   35  A    between atoms: _82  and  _84
REMARK   36  A    between atoms: _84  and  _85
REMARK   37  A    between atoms: _84  and  _87
REMARK   38  A    between atoms: _87  and  _88
REMARK   39  A    between atoms: _88  and  _89
REMARK   40  A    between atoms: _89  and  _90
REMARK   41  A    between atoms: _99  and  _101
REMARK   42  A    between atoms: _101  and  _102
REMARK   43  A    between atoms: _101  and  _104
REMARK   44  A    between atoms: _104  and  _105
REMARK   45  A    between atoms: _110  and  _112
REMARK   46  A    between atoms: _112  and  _113
REMARK   47  A    between atoms: _112  and  _115
REMARK   48  A    between atoms: _115  and  _116
REMARK   49  A    between atoms: _121  and  _123
REMARK   50  A    between atoms: _123  and  _124
REMARK   51  A    between atoms: _123  and  _126
REMARK   52  A    between atoms: _126  and  _127
REMARK   53  A    between atoms: _127  and  _128
REMARK   54  A    between atoms: _128  and  _129
REMARK   55  A    between atoms: _138  and  _140
REMARK   56  A    between atoms: _140  and  _141
REMARK   57  A    between atoms: _140  and  _143
REMARK   58  A    between atoms: _143  and  _144
REMARK   59  A    between atoms: _146  and  _148
REMARK   60  A    between atoms: _148  and  _149
REMARK   61  A    between atoms: _148  and  _151
REMARK   62  A    between atoms: _151  and  _152
REMARK   63  A    between atoms: _157  and  _159
REMARK   64  A    between atoms: _159  and  _160
REMARK   65  A    between atoms: _159  and  _162
REMARK   66  A    between atoms: _162  and  _163
REMARK   67  A    between atoms: _163  and  _164
REMARK   68  A    between atoms: _167  and  _169
REMARK   69  A    between atoms: _169  and  _170
REMARK   70  A    between atoms: _169  and  _172
REMARK   71  A    between atoms: _172  and  _173
REMARK   72  A    between atoms: _173  and  _174
REMARK   73  A    between atoms: _177  and  _179
REMARK   74  A    between atoms: _179  and  _180
REMARK   75  A    between atoms: _179  and  _182
REMARK   76  A    between atoms: _182  and  _183
REMARK   77  A    between atoms: _184  and  MG_443
REMARK   78  A    between atoms: _188  and  _190
REMARK   79  A    between atoms: _190  and  _191
REMARK   80  A    between atoms: _190  and  _193
REMARK   81  A    between atoms: _193  and  _194
REMARK   82  A    between atoms: _199  and  _201
REMARK   83  A    between atoms: _201  and  _202
REMARK   84  A    between atoms: _201  and  _204
REMARK   85  A    between atoms: _204  and  _205
REMARK   86  A    between atoms: _205  and  _206
REMARK   87  A    between atoms: _209  and  _211
REMARK   88  A    between atoms: _211  and  _212
REMARK   89  A    between atoms: _211  and  _214
REMARK   90  A    between atoms: _214  and  _215
REMARK   91  A    between atoms: _215  and  _216
REMARK   92  A    between atoms: _219  and  _221
REMARK   93  A    between atoms: _221  and  _222
REMARK   94  A    between atoms: _221  and  _224
REMARK   95  A    between atoms: _224  and  _225
REMARK   96  A    between atoms: _225  and  _226
REMARK   97  A    between atoms: _228  and  _230
REMARK   98  A    between atoms: _230  and  _231
REMARK   99  A    between atoms: _230  and  _233
REMARK  100  A    between atoms: _233  and  _234
REMARK  101  A    between atoms: _239  and  _240
REMARK  102  A    between atoms: _242  and  _244
REMARK  103  A    between atoms: _244  and  _245
REMARK  104  A    between atoms: _244  and  _247
REMARK  105  A    between atoms: _247  and  _248
REMARK  106  A    between atoms: _248  and  _249
REMARK  107  A    between atoms: _249  and  _250
REMARK  108  A    between atoms: _250  and  _251
REMARK  109  A    between atoms: _255  and  _257
REMARK  110  A    between atoms: _257  and  _258
REMARK  111  A    between atoms: _257  and  _260
REMARK  112  A    between atoms: _262  and  _264
REMARK  113  A    between atoms: _264  and  _265
REMARK  114  A    between atoms: _264  and  _267
REMARK  115  A    between atoms: _267  and  _268
REMARK  116  A    between atoms: _268  and  _269
REMARK  117  A    between atoms: _272  and  _274
REMARK  118  A    between atoms: _274  and  _275
REMARK  119  A    between atoms: _274  and  _277
REMARK  120  A    between atoms: _277  and  _278
REMARK  121  A    between atoms: _283  and  _285
REMARK  122  A    between atoms: _285  and  _286
REMARK  123  A    between atoms: _289  and  _291
REMARK  124  A    between atoms: _291  and  _292
REMARK  125  A    between atoms: _291  and  _294
REMARK  126  A    between atoms: _294  and  _295
REMARK  127  A    between atoms: _295  and  _296
REMARK  128  A    between atoms: _298  and  _300
REMARK  129  A    between atoms: _300  and  _301
REMARK  130  A    between atoms: _300  and  _303
REMARK  131  A    between atoms: _303  and  _304
REMARK  132  A    between atoms: _314  and  _316
REMARK  133  A    between atoms: _316  and  _317
REMARK  134  A    between atoms: _316  and  _319
REMARK  135  A    between atoms: _319  and  _320
REMARK  136  A    between atoms: _323  and  _325
REMARK  137  A    between atoms: _325  and  _326
REMARK  138  A    between atoms: _325  and  _328
REMARK  139  A    between atoms: _328  and  _329
REMARK  140  A    between atoms: _329  and  _330
REMARK  141  A    between atoms: _335  and  _337
REMARK  142  A    between atoms: _337  and  _338
REMARK  143  A    between atoms: _337  and  _340
REMARK  144  A    between atoms: _340  and  _341
REMARK  145  A    between atoms: _341  and  _342
REMARK  146  A    between atoms: _347  and  _349
REMARK  147  A    between atoms: _349  and  _350
REMARK  148  A    between atoms: _349  and  _352
REMARK  149  A    between atoms: _352  and  _353
REMARK  150  A    between atoms: _359  and  _361
REMARK  151  A    between atoms: _361  and  _362
REMARK  152  A    between atoms: _361  and  _364
REMARK  153  A    between atoms: _366  and  _368
REMARK  154  A    between atoms: _368  and  _369
REMARK  155  A    between atoms: _368  and  _371
REMARK  156  A    between atoms: _371  and  _372
REMARK  157  A    between atoms: _372  and  _373
REMARK  158  A    between atoms: _375  and  _377
REMARK  159  A    between atoms: _377  and  _378
REMARK  160  A    between atoms: _377  and  _380
REMARK  161  A    between atoms: _380  and  _381
REMARK  162  A    between atoms: _381  and  _382
REMARK  163  A    between atoms: _381  and  _383
REMARK  164  A    between atoms: _386  and  _388
REMARK  165  A    between atoms: _388  and  _389
REMARK  166  A    between atoms: _391  and  _393
REMARK  167  A    between atoms: _393  and  _394
REMARK  168  A    between atoms: _393  and  _396
REMARK  169  A    between atoms: _396  and  _397
REMARK  170  A    between atoms: _400  and  _402
REMARK  171  A    between atoms: _402  and  _403
REMARK  172  A    between atoms: _402  and  _405
REMARK  173  A    between atoms: _405  and  _406
REMARK  174  A    between atoms: _409  and  _411
REMARK  175  A    between atoms: _411  and  _412
REMARK  176  A    between atoms: _411  and  _414
REMARK  177  A    between atoms: _414  and  _415
REMARK  178  A    between atoms: _417  and  _419
REMARK  179  A    between atoms: _419  and  _420
REMARK  180  A    between atoms: _419  and  _422
REMARK  181  A    between atoms: _422  and  _423
REMARK  182  A    between atoms: _433  and  _435
REMARK  183  A    between atoms: _435  and  _436
REMARK  184  A    between atoms: _435  and  _438
REMARK  185  A    between atoms: _438  and  _439
REMARK  186  A    between atoms: _439  and  _440
REMARK                            x       y       z     vdW  Elec       q    Type
REMARK                         _______ _______ _______ _____ _____    ______ ____
ROOT
ATOM      1  C   CYS A   1      -5.606 -21.480 -25.210  0.00  0.00    +0.239 C 
ATOM      2  N   GLU A   2      -6.821 -21.128 -25.629  0.00  0.00    -0.298 N 
ATOM      3  H   GLU A   2      -7.366 -20.458 -25.050  0.00  0.00    +0.150 HD
ATOM      4  O   CYS A   1      -4.929 -22.355 -25.742  0.00  0.00    -0.274 OA
ENDROOT
BRANCH   1   5
ATOM      5  CA  CYS A   1      -5.069 -20.735 -23.991  0.00  0.00    +0.156 C 
BRANCH   5   6
ATOM      6  N   CYS A   1      -5.643 -19.388 -23.907  0.00  0.00    -0.237 NA
ATOM      7  H   CYS A   1      -6.338 -19.170 -23.164  0.00  0.00    +0.142 HD
ENDBRANCH   5   6
BRANCH   5   8
ATOM      8  CB  CYS A   1      -5.270 -21.556 -22.697  0.00  0.00    +0.095 C 
ATOM      9  SG  CYS A   1      -6.978 -22.023 -22.353  0.00  0.00    -0.080 S 
ENDBRANCH   5   8
ENDBRANCH   1   5
BRANCH   2  10
ATOM     10  CA  GLU A   2      -7.431 -21.634 -26.862  0.00  0.00    +0.137 C 
BRANCH  10  11
ATOM     11  C   GLU A   2      -8.330 -20.556 -27.472  0.00  0.00    +0.227 C 
ATOM     12  O   GLU A   2      -9.161 -19.956 -26.785  0.00  0.00    -0.286 OA
ENDBRANCH  10  11
BRANCH  10  13
ATOM     13  CB  GLU A   2      -8.253 -22.908 -26.609  0.00  0.00    +0.039 C 
BRANCH  13  14
ATOM     14  CG  GLU A   2      -7.447 -24.112 -26.172  0.00  0.00    +0.116 C 
BRANCH  14  15
ATOM     15  CD  GLU A   2      -8.307 -25.196 -25.554  0.00  0.00    +0.365 C 
ATOM     16  OE2 GLU A   2      -7.881 -25.804 -24.535  0.00  0.00    -0.246 OA
ATOM     17  OE1 GLU A   2      -9.411 -25.426 -26.088  0.00  0.00    -0.246 OA
ENDBRANCH  14  15
ENDBRANCH  13  14
ENDBRANCH  10  13
ENDBRANCH   2  10
TORSDOF 8
REMARK  Name = ../refined-set-2016/3t2q/3t2q_pocket.pdb
REMARK  186 active torsions:
REMARK  status: ('A' for Active; 'I' for Inactive)
REMARK    1  A    between atoms: _1  and  _3
REMARK    2  A    between atoms: _3  and  _4
REMARK    3  A    between atoms: _3  and  _6
REMARK    4  A    between atoms: _6  and  _7
REMARK    5  A    between atoms: _12  and  _13
REMARK    6  A    between atoms: _15  and  _17
REMARK    7  A    between atoms: _17  and  _18
REMARK    8  A    between atoms: _17  and  _20
REMARK    9  A    between atoms: _20  and  _21
REMARK   10  A    between atoms: _24  and  _26
REMARK   11  A    between atoms: _26  and  _27
REMARK   12  A    between atoms: _26  and  _29
REMARK   13  A    between atoms: _29  and  _30
REMARK   14  A    between atoms: _35  and  _37
REMARK   15  A    between atoms: _37  and  _38
REMARK   16  A    between atoms: _37  and  _40
REMARK   17  A    between atoms: _43  and  _45
REMARK   18  A    between atoms: _45  and  _46
REMARK   19  A    between atoms: _45  and  _48
REMARK   20  A    between atoms: _48  and  _49
REMARK   21  A    between atoms: _52  and  _54
REMARK   22  A    between atoms: _54  and  _55
REMARK   23  A    between atoms: _54  and  _57
REMARK   24  A    between atoms: _57  and  _58
REMARK   25  A    between atoms: _58  and  _59
REMARK   26  A    between atoms: _64  and  _66
REMARK   27  A    between atoms: _66  and  _67
REMARK   28  A    between atoms: _66  and  _69
REMARK   29  A    between atoms: _69  and  _70
REMARK   30  A    between atoms: _73  and  _75
REMARK   31  A    between atoms: _75  and  _76
REMARK   32  A    between atoms: _75  and  _78
REMARK   33  A    between atoms: _78  and  _79
REMARK   34  A    between atoms: _79  and  _80
REMARK   35  A    between atoms: _82  and  _84
REMARK   36  A    between atoms: _84  and  _85
REMARK   37  A    between atoms: _84  and  _87
REMARK   38  A    between atoms: _87  and  _88
REMARK   39  A    between atoms: _88  and  _89
REMARK   40  A    between atoms: _89  and  _90
REMARK   41  A    between atoms: _99  and  _101
REMARK   42  A    between atoms: _101  and  _102
REMARK   43  A    between atoms: _101  and  _104
REMARK   44  A    between atoms: _104  and  _105
REMARK   45  A    between atoms: _110  and  _112
REMARK   46  A    between atoms: _112  and  _113
REMARK   47  A    between atoms: _112  and  _115
REMARK   48  A    between atoms: _115  and  _116
REMARK   49  A    between atoms: _121  and  _123
REMARK   50  A    between atoms: _123  and  _124
REMARK   51  A    between atoms: _123  and  _126
REMARK   52  A    between atoms: _126  and  _127
REMARK   53  A    between atoms: _127  and  _128
REMARK   54  A    between atoms: _128  and  _129
REMARK   55  A    between atoms: _138  and  _140
REMARK   56  A    between atoms: _140  and  _141
REMARK   57  A    between atoms: _140  and  _143
REMARK   58  A    between atoms: _143  and  _144
REMARK   59  A    between atoms: _146  and  _148
REMARK   60  A    between atoms: _148  and  _149
REMARK   61  A    between atoms: _148  and  _151
REMARK   62  A    between atoms: _151  and  _152
REMARK   63  A    between atoms: _157  and  _159
REMARK   64  A    between atoms: _159  and  _160
REMARK   65  A    between atoms: _159  and  _162
REMARK   66  A    between atoms: _162  and  _163
REMARK   67  A    between atoms: _163  and  _164
REMARK   68  A    between atoms: _167  and  _169
REMARK   69  A    between atoms: _169  and  _170
REMARK   70  A    between atoms: _169  and  _172
REMARK   71  A    between atoms: _172  and  _173
REMARK   72  A    between atoms: _173  and  _174
REMARK   73  A    between atoms: _177  and  _179
REMARK   74  A    between atoms: _179  and  _180
REMARK   75  A    between atoms: _179  and  _182
REMARK   76  A    between atoms: _182  and  _183
REMARK   77  A    between atoms: _184  and  MG_443
REMARK   78  A    between atoms: _188  and  _190
REMARK   79  A    between atoms: _190  and  _191
REMARK   80  A    between atoms: _190  and  _193
REMARK   81  A    between atoms: _193  and  _194
REMARK   82  A    between atoms: _199  and  _201
REMARK   83  A    between atoms: _201  and  _202
REMARK   84  A    between atoms: _201  and  _204
REMARK   85  A    between atoms: _204  and  _205
REMARK   86  A    between atoms: _205  and  _206
REMARK   87  A    between atoms: _209  and  _211
REMARK   88  A    between atoms: _211  and  _212
REMARK   89  A    between atoms: _211  and  _214
REMARK   90  A    between atoms: _214  and  _215
REMARK   91  A    between atoms: _215  and  _216
REMARK   92  A    between atoms: _219  and  _221
REMARK   93  A    between atoms: _221  and  _222
REMARK   94  A    between atoms: _221  and  _224
REMARK   95  A    between atoms: _224  and  _225
REMARK   96  A    between atoms: _225  and  _226
REMARK   97  A    between atoms: _228  and  _230
REMARK   98  A    between atoms: _230  and  _231
REMARK   99  A    between atoms: _230  and  _233
REMARK  100  A    between atoms: _233  and  _234
REMARK  101  A    between atoms: _239  and  _240
REMARK  102  A    between atoms: _242  and  _244
REMARK  103  A    between atoms: _244  and  _245
REMARK  104  A    between atoms: _244  and  _247
REMARK  105  A    between atoms: _247  and  _248
REMARK  106  A    between atoms: _248  and  _249
REMARK  107  A    between atoms: _249  and  _250
REMARK  108  A    between atoms: _250  and  _251
REMARK  109  A    between atoms: _255  and  _257
REMARK  110  A    between atoms: _257  and  _258
REMARK  111  A    between atoms: _257  and  _260
REMARK  112  A    between atoms: _262  and  _264
REMARK  113  A    between atoms: _264  and  _265
REMARK  114  A    between atoms: _264  and  _267
REMARK  115  A    between atoms: _267  and  _268
REMARK  116  A    between atoms: _268  and  _269
REMARK  117  A    between atoms: _272  and  _274
REMARK  118  A    between atoms: _274  and  _275
REMARK  119  A    between atoms: _274  and  _277
REMARK  120  A    between atoms: _277  and  _278
REMARK  121  A    between atoms: _283  and  _285
REMARK  122  A    between atoms: _285  and  _286
REMARK  123  A    between atoms: _289  and  _291
REMARK  124  A    between atoms: _291  and  _292
REMARK  125  A    between atoms: _291  and  _294
REMARK  126  A    between atoms: _294  and  _295
REMARK  127  A    between atoms: _295  and  _296
REMARK  128  A    between atoms: _298  and  _300
REMARK  129  A    between atoms: _300  and  _301
REMARK  130  A    between atoms: _300  and  _303
REMARK  131  A    between atoms: _303  and  _304
REMARK  132  A    between atoms: _314  and  _316
REMARK  133  A    between atoms: _316  and  _317
REMARK  134  A    between atoms: _316  and  _319
REMARK  135  A    between atoms: _319  and  _320
REMARK  136  A    between atoms: _323  and  _325
REMARK  137  A    between atoms: _325  and  _326
REMARK  138  A    between atoms: _325  and  _328
REMARK  139  A    between atoms: _328  and  _329
REMARK  140  A    between atoms: _329  and  _330
REMARK  141  A    between atoms: _335  and  _337
REMARK  142  A    between atoms: _337  and  _338
REMARK  143  A    between atoms: _337  and  _340
REMARK  144  A    between atoms: _340  and  _341
REMARK  145  A    between atoms: _341  and  _342
REMARK  146  A    between atoms: _347  and  _349
REMARK  147  A    between atoms: _349  and  _350
REMARK  148  A    between atoms: _349  and  _352
REMARK  149  A    between atoms: _352  and  _353
REMARK  150  A    between atoms: _359  and  _361
REMARK  151  A    between atoms: _361  and  _362
REMARK  152  A    between atoms: _361  and  _364
REMARK  153  A    between atoms: _366  and  _368
REMARK  154  A    between atoms: _368  and  _369
REMARK  155  A    between atoms: _368  and  _371
REMARK  156  A    between atoms: _371  and  _372
REMARK  157  A    between atoms: _372  and  _373
REMARK  158  A    between atoms: _375  and  _377
REMARK  159  A    between atoms: _377  and  _378
REMARK  160  A    between atoms: _377  and  _380
REMARK  161  A    between atoms: _380  and  _381
REMARK  162  A    between atoms: _381  and  _382
REMARK  163  A    between atoms: _381  and  _383
REMARK  164  A    between atoms: _386  and  _388
REMARK  165  A    between atoms: _388  and  _389
REMARK  166  A    between atoms: _391  and  _393
REMARK  167  A    between atoms: _393  and  _394
REMARK  168  A    between atoms: _393  and  _396
REMARK  169  A    between atoms: _396  and  _397
REMARK  170  A    between atoms: _400  and  _402
REMARK  171  A    between atoms: _402  and  _403
REMARK  172  A    between atoms: _402  and  _405
REMARK  173  A    between atoms: _405  and  _406
REMARK  174  A    between atoms: _409  and  _411
REMARK  175  A    between atoms: _411  and  _412
REMARK  176  A    between atoms: _411  and  _414
REMARK  177  A    between atoms: _414  and  _415
REMARK  178  A    between atoms: _417  and  _419
REMARK  179  A    between atoms: _419  and  _420
REMARK  180  A    between atoms: _419  and  _422
REMARK  181  A    between atoms: _422  and  _423
REMARK  182  A    between atoms: _433  and  _435
REMARK  183  A    between atoms: _435  and  _436
REMARK  184  A    between atoms: _435  and  _438
REMARK  185  A    between atoms: _438  and  _439
REMARK  186  A    between atoms: _439  and  _440
REMARK                            x       y       z     vdW  Elec       q    Type
REMARK                         _______ _______ _______ _____ _____    ______ ____
ROOT
ATOM      1  C   HIS A   1     -11.410 -23.215 -34.883  0.00  0.00    +0.239 C 
ATOM      2  N   ALA A   2     -10.356 -23.905 -35.312  0.00  0.00    -0.297 N 
ATOM      3  H   ALA A   2      -9.696 -24.303 -34.614  0.00  0.00    +0.150 HD
ATOM      4  O   HIS A   1     -12.305 -22.841 -35.627  0.00  0.00    -0.274 OA
ENDROOT
BRANCH   2   5
ATOM      5  CA  ALA A   2     -10.098 -24.121 -36.739  0.00  0.00    +0.149 C 
ATOM      6  CB  ALA A   2      -8.590 -24.102 -37.016  0.00  0.00    +0.031 C 
BRANCH   5   7
ATOM      7  C   ALA A   2     -10.737 -25.399 -37.281  0.00  0.00    +0.241 C 
ATOM      8  N   MET A   3     -11.986 -25.634 -36.898  0.00  0.00    -0.298 N 
ATOM      9  H   MET A   3     -12.470 -24.940 -36.293  0.00  0.00    +0.150 HD
ATOM     10  O   ALA A   2     -10.112 -26.149 -38.043  0.00  0.00    -0.273 OA
BRANCH   8  11
ATOM     11  CA  MET A   3     -12.699 -26.844 -37.306  0.00  0.00    +0.138 C 
BRANCH  11  12
ATOM     12  C   MET A   3     -13.299 -26.710 -38.697  0.00  0.00    +0.227 C 
ATOM     13  O   MET A   3     -14.303 -26.008 -38.895  0.00  0.00    -0.286 OA
ENDBRANCH  11  12
BRANCH  11  14
ATOM     14  CB  MET A   3     -13.791 -27.194 -36.295  0.00  0.00    +0.039 C 
BRANCH  14  15
ATOM     15  CG  MET A   3     -14.534 -28.479 -36.603  0.00  0.00    +0.060 C 
BRANCH  15  16
ATOM     16  SD  MET A   3     -15.806 -28.774 -35.379  0.00  0.00    -0.139 S 
ATOM     17  CE  MET A   3     -16.538 -30.276 -36.019  0.00  0.00    +0.069 C 
ENDBRANCH  15  16
ENDBRANCH  14  15
ENDBRANCH  11  14
ENDBRANCH   8  11
ENDBRANCH   5   7
ENDBRANCH   2   5
BRANCH   1  18
ATOM     18  CA  HIS A   1     -11.459 -22.891 -33.389  0.00  0.00    +0.151 C 
BRANCH  18  19
ATOM     19  N   HIS A   1     -11.263 -21.456 -33.133  0.00  0.00    -0.238 NA
ATOM     20  H   HIS A   1     -12.021 -20.931 -32.651  0.00  0.00    +0.142 HD
ENDBRANCH  18  19
BRANCH  18  21
ATOM     21  CB  HIS A   1     -12.785 -23.341 -32.802  0.00  0.00    +0.074 C 
BRANCH  21  22
ATOM     22  CG  HIS A   1     -12.836 -24.800 -32.495  0.00  0.00    +0.082 A 
ATOM     23  CD2 HIS A   1     -12.385 -25.503 -31.428  0.00  0.00    +0.115 A 
ATOM     24  NE2 HIS A   1     -12.680 -26.824 -31.659  0.00  0.00    -0.221 NA
ATOM     25  CE1 HIS A   1     -13.299 -26.926 -32.821  0.00  0.00    +0.199 A 
ATOM     26  ND1 HIS A   1     -13.395 -25.720 -33.352  0.00  0.00    -0.227 NA
ENDBRANCH  21  22
ENDBRANCH  18  21
ENDBRANCH   1  18
TORSDOF 11
REMARK  Name = ../refined-set-2016/3t2q/3t2q_pocket.pdb
REMARK  186 active torsions:
REMARK  status: ('A' for Active; 'I' for Inactive)
REMARK    1  A    between atoms: _1  and  _3
REMARK    2  A    between atoms: _3  and  _4
REMARK    3  A    between atoms: _3  and  _6
REMARK    4  A    between atoms: _6  and  _7
REMARK    5  A    between atoms: _12  and  _13
REMARK    6  A    between atoms: _15  and  _17
REMARK    7  A    between atoms: _17  and  _18
REMARK    8  A    between atoms: _17  and  _20
REMARK    9  A    between atoms: _20  and  _21
REMARK   10  A    between atoms: _24  and  _26
REMARK   11  A    between atoms: _26  and  _27
REMARK   12  A    between atoms: _26  and  _29
REMARK   13  A    between atoms: _29  and  _30
REMARK   14  A    between atoms: _35  and  _37
REMARK   15  A    between atoms: _37  and  _38
REMARK   16  A    between atoms: _37  and  _40
REMARK   17  A    between atoms: _43  and  _45
REMARK   18  A    between atoms: _45  and  _46
REMARK   19  A    between atoms: _45  and  _48
REMARK   20  A    between atoms: _48  and  _49
REMARK   21  A    between atoms: _52  and  _54
REMARK   22  A    between atoms: _54  and  _55
REMARK   23  A    between atoms: _54  and  _57
REMARK   24  A    between atoms: _57  and  _58
REMARK   25  A    between atoms: _58  and  _59
REMARK   26  A    between atoms: _64  and  _66
REMARK   27  A    between atoms: _66  and  _67
REMARK   28  A    between atoms: _66  and  _69
REMARK   29  A    between atoms: _69  and  _70
REMARK   30  A    between atoms: _73  and  _75
REMARK   31  A    between atoms: _75  and  _76
REMARK   32  A    between atoms: _75  and  _78
REMARK   33  A    between atoms: _78  and  _79
REMARK   34  A    between atoms: _79  and  _80
REMARK   35  A    between atoms: _82  and  _84
REMARK   36  A    between atoms: _84  and  _85
REMARK   37  A    between atoms: _84  and  _87
REMARK   38  A    between atoms: _87  and  _88
REMARK   39  A    between atoms: _88  and  _89
REMARK   40  A    between atoms: _89  and  _90
REMARK   41  A    between atoms: _99  and  _101
REMARK   42  A    between atoms: _101  and  _102
REMARK   43  A    between atoms: _101  and  _104
REMARK   44  A    between atoms: _104  and  _105
REMARK   45  A    between atoms: _110  and  _112
REMARK   46  A    between atoms: _112  and  _113
REMARK   47  A    between atoms: _112  and  _115
REMARK   48  A    between atoms: _115  and  _116
REMARK   49  A    between atoms: _121  and  _123
REMARK   50  A    between atoms: _123  and  _124
REMARK   51  A    between atoms: _123  and  _126
REMARK   52  A    between atoms: _126  and  _127
REMARK   53  A    between atoms: _127  and  _128
REMARK   54  A    between atoms: _128  and  _129
REMARK   55  A    between atoms: _138  and  _140
REMARK   56  A    between atoms: _140  and  _141
REMARK   57  A    between atoms: _140  and  _143
REMARK   58  A    between atoms: _143  and  _144
REMARK   59  A    between atoms: _146  and  _148
REMARK   60  A    between atoms: _148  and  _149
REMARK   61  A    between atoms: _148  and  _151
REMARK   62  A    between atoms: _151  and  _152
REMARK   63  A    between atoms: _157  and  _159
REMARK   64  A    between atoms: _159  and  _160
REMARK   65  A    between atoms: _159  and  _162
REMARK   66  A    between atoms: _162  and  _163
REMARK   67  A    between atoms: _163  and  _164
REMARK   68  A    between atoms: _167  and  _169
REMARK   69  A    between atoms: _169  and  _170
REMARK   70  A    between atoms: _169  and  _172
REMARK   71  A    between atoms: _172  and  _173
REMARK   72  A    between atoms: _173  and  _174
REMARK   73  A    between atoms: _177  and  _179
REMARK   74  A    between atoms: _179  and  _180
REMARK   75  A    between atoms: _179  and  _182
REMARK   76  A    between atoms: _182  and  _183
REMARK   77  A    between atoms: _184  and  MG_443
REMARK   78  A    between atoms: _188  and  _190
REMARK   79  A    between atoms: _190  and  _191
REMARK   80  A    between atoms: _190  and  _193
REMARK   81  A    between atoms: _193  and  _194
REMARK   82  A    between atoms: _199  and  _201
REMARK   83  A    between atoms: _201  and  _202
REMARK   84  A    between atoms: _201  and  _204
REMARK   85  A    between atoms: _204  and  _205
REMARK   86  A    between atoms: _205  and  _206
REMARK   87  A    between atoms: _209  and  _211
REMARK   88  A    between atoms: _211  and  _212
REMARK   89  A    between atoms: _211  and  _214
REMARK   90  A    between atoms: _214  and  _215
REMARK   91  A    between atoms: _215  and  _216
REMARK   92  A    between atoms: _219  and  _221
REMARK   93  A    between atoms: _221  and  _222
REMARK   94  A    between atoms: _221  and  _224
REMARK   95  A    between atoms: _224  and  _225
REMARK   96  A    between atoms: _225  and  _226
REMARK   97  A    between atoms: _228  and  _230
REMARK   98  A    between atoms: _230  and  _231
REMARK   99  A    between atoms: _230  and  _233
REMARK  100  A    between atoms: _233  and  _234
REMARK  101  A    between atoms: _239  and  _240
REMARK  102  A    between atoms: _242  and  _244
REMARK  103  A    between atoms: _244  and  _245
REMARK  104  A    between atoms: _244  and  _247
REMARK  105  A    between atoms: _247  and  _248
REMARK  106  A    between atoms: _248  and  _249
REMARK  107  A    between atoms: _249  and  _250
REMARK  108  A    between atoms: _250  and  _251
REMARK  109  A    between atoms: _255  and  _257
REMARK  110  A    between atoms: _257  and  _258
REMARK  111  A    between atoms: _257  and  _260
REMARK  112  A    between atoms: _262  and  _264
REMARK  113  A    between atoms: _264  and  _265
REMARK  114  A    between atoms: _264  and  _267
REMARK  115  A    between atoms: _267  and  _268
REMARK  116  A    between atoms: _268  and  _269
REMARK  117  A    between atoms: _272  and  _274
REMARK  118  A    between atoms: _274  and  _275
REMARK  119  A    between atoms: _274  and  _277
REMARK  120  A    between atoms: _277  and  _278
REMARK  121  A    between atoms: _283  and  _285
REMARK  122  A    between atoms: _285  and  _286
REMARK  123  A    between atoms: _289  and  _291
REMARK  124  A    between atoms: _291  and  _292
REMARK  125  A    between atoms: _291  and  _294
REMARK  126  A    between atoms: _294  and  _295
REMARK  127  A    between atoms: _295  and  _296
REMARK  128  A    between atoms: _298  and  _300
REMARK  129  A    between atoms: _300  and  _301
REMARK  130  A    between atoms: _300  and  _303
REMARK  131  A    between atoms: _303  and  _304
REMARK  132  A    between atoms: _314  and  _316
REMARK  133  A    between atoms: _316  and  _317
REMARK  134  A    between atoms: _316  and  _319
REMARK  135  A    between atoms: _319  and  _320
REMARK  136  A    between atoms: _323  and  _325
REMARK  137  A    between atoms: _325  and  _326
REMARK  138  A    between atoms: _325  and  _328
REMARK  139  A    between atoms: _328  and  _329
REMARK  140  A    between atoms: _329  and  _330
REMARK  141  A    between atoms: _335  and  _337
REMARK  142  A    between atoms: _337  and  _338
REMARK  143  A    between atoms: _337  and  _340
REMARK  144  A    between atoms: _340  and  _341
REMARK  145  A    between atoms: _341  and  _342
REMARK  146  A    between atoms: _347  and  _349
REMARK  147  A    between atoms: _349  and  _350
REMARK  148  A    between atoms: _349  and  _352
REMARK  149  A    between atoms: _352  and  _353
REMARK  150  A    between atoms: _359  and  _361
REMARK  151  A    between atoms: _361  and  _362
REMARK  152  A    between atoms: _361  and  _364
REMARK  153  A    between atoms: _366  and  _368
REMARK  154  A    between atoms: _368  and  _369
REMARK  155  A    between atoms: _368  and  _371
REMARK  156  A    between atoms: _371  and  _372
REMARK  157  A    between atoms: _372  and  _373
REMARK  158  A    between atoms: _375  and  _377
REMARK  159  A    between atoms: _377  and  _378
REMARK  160  A    between atoms: _377  and  _380
REMARK  161  A    between atoms: _380  and  _381
REMARK  162  A    between atoms: _381  and  _382
REMARK  163  A    between atoms: _381  and  _383
REMARK  164  A    between atoms: _386  and  _388
REMARK  165  A    between atoms: _388  and  _389
REMARK  166  A    between atoms: _391  and  _393
REMARK  167  A    between atoms: _393  and  _394
REMARK  168  A    between atoms: _393  and  _396
REMARK  169  A    between atoms: _396  and  _397
REMARK  170  A    between atoms: _400  and  _402
REMARK  171  A    between atoms: _402  and  _403
REMARK  172  A    between atoms: _402  and  _405
REMARK  173  A    between atoms: _405  and  _406
REMARK  174  A    between atoms: _409  and  _411
REMARK  175  A    between atoms: _411  and  _412
REMARK  176  A    between atoms: _411  and  _414
REMARK  177  A    between atoms: _414  and  _415
REMARK  178  A    between atoms: _417  and  _419
REMARK  179  A    between atoms: _419  and  _420
REMARK  180  A    between atoms: _419  and  _422
REMARK  181  A    between atoms: _422  and  _423
REMARK  182  A    between atoms: _433  and  _435
REMARK  183  A    between atoms: _435  and  _436
REMARK  184  A    between atoms: _435  and  _438
REMARK  185  A    between atoms: _438  and  _439
REMARK  186  A    between atoms: _439  and  _440
REMARK                            x       y       z     vdW  Elec       q    Type
REMARK                         _______ _______ _______ _____ _____    ______ ____
ROOT
ATOM      1  CA  TRP A   1      -7.034 -24.569 -31.409  0.00  0.00    +0.149 C 
ENDROOT
BRANCH   1   2
ATOM      2  C   TRP A   1      -7.487 -25.095 -32.762  0.00  0.00    +0.239 C 
ATOM      3  O   TRP A   1      -8.627 -24.830 -33.191  0.00  0.00    -0.274 OA
ATOM      4  N   ASP A   2      -6.634 -25.870 -33.429  0.00  0.00    -0.298 N 
ATOM      5  H   ASP A   2      -6.924 -26.206 -34.369  0.00  0.00    +0.150 HD
BRANCH   4   6
ATOM      6  CA  ASP A   2      -5.319 -26.284 -32.939  0.00  0.00    +0.148 C 
BRANCH   6   7
ATOM      7  C   ASP A   2      -4.459 -26.649 -34.137  0.00  0.00    +0.227 C 
ATOM      8  O   ASP A   2      -4.742 -26.209 -35.248  0.00  0.00    -0.286 OA
ENDBRANCH   6   7
BRANCH   6   9
ATOM      9  CB  ASP A   2      -5.413 -27.453 -31.939  0.00  0.00    +0.142 C 
BRANCH   9  10
ATOM     10  CG  ASP A   2      -6.044 -28.696 -32.531  0.00  0.00    +0.367 C 
ATOM     11  OD2 ASP A   2      -6.359 -29.630 -31.759  0.00  0.00    -0.246 OA
ATOM     12  OD1 ASP A   2      -6.219 -28.743 -33.764  0.00  0.00    -0.246 OA
ENDBRANCH   9  10
ENDBRANCH   6   9
ENDBRANCH   4   6
ENDBRANCH   1   2
BRANCH   1  13
ATOM     13  N   TRP A   1      -6.656 -23.161 -31.485  0.00  0.00    -0.238 NA
ATOM     14  H   TRP A   1      -7.384 -22.430 -31.616  0.00  0.00    +0.142 HD
ENDBRANCH   1  13
BRANCH   1  15
ATOM     15  CB  TRP A   1      -8.124 -24.830 -30.383  0.00  0.00    +0.054 C 
BRANCH  15  16
ATOM     16  CG  TRP A   1      -8.366 -26.320 -30.242  0.00  0.00    -0.002 A 
ATOM     17  CD2 TRP A   1      -7.737 -27.205 -29.308  0.00  0.00    +0.013 A 
ATOM     18  CE3 TRP A   1      -6.809 -27.025 -28.276  0.00  0.00    +0.001 A 
ATOM     19  CZ3 TRP A   1      -6.416 -28.134 -27.531  0.00  0.00    +0.000 A 
ATOM     20  CH2 TRP A   1      -6.934 -29.412 -27.805  0.00  0.00    +0.001 A 
ATOM     21  CZ2 TRP A   1      -7.845 -29.617 -28.812  0.00  0.00    +0.017 A 
ATOM     22  CE2 TRP A   1      -8.242 -28.504 -29.556  0.00  0.00    +0.056 A 
ATOM     23  NE1 TRP A   1      -9.117 -28.411 -30.604  0.00  0.00    -0.352 N 
ATOM     24  HE1 TRP A   1      -9.644 -29.204 -31.023  0.00  0.00    +0.166 HD
ATOM     25  CD1 TRP A   1      -9.187 -27.101 -31.013  0.00  0.00    +0.068 A 
ENDBRANCH  15  16
ENDBRANCH   1  15
TORSDOF 8
REMARK  Name = ../refined-set-2016/3t2q/3t2q_pocket.pdb
REMARK  186 active torsions:
REMARK  status: ('A' for Active; 'I' for Inactive)
REMARK    1  A    between atoms: _1  and  _3
REMARK    2  A    between atoms: _3  and  _4
REMARK    3  A    between atoms: _3  and  _6
REMARK    4  A    between atoms: _6  and  _7
REMARK    5  A    between atoms: _12  and  _13
REMARK    6  A    between atoms: _15  and  _17
REMARK    7  A    between atoms: _17  and  _18
REMARK    8  A    between atoms: _17  and  _20
REMARK    9  A    between atoms: _20  and  _21
REMARK   10  A    between atoms: _24  and  _26
REMARK   11  A    between atoms: _26  and  _27
REMARK   12  A    between atoms: _26  and  _29
REMARK   13  A    between atoms: _29  and  _30
REMARK   14  A    between atoms: _35  and  _37
REMARK   15  A    between atoms: _37  and  _38
REMARK   16  A    between atoms: _37  and  _40
REMARK   17  A    between atoms: _43  and  _45
REMARK   18  A    between atoms: _45  and  _46
REMARK   19  A    between atoms: _45  and  _48
REMARK   20  A    between atoms: _48  and  _49
REMARK   21  A    between atoms: _52  and  _54
REMARK   22  A    between atoms: _54  and  _55
REMARK   23  A    between atoms: _54  and  _57
REMARK   24  A    between atoms: _57  and  _58
REMARK   25  A    between atoms: _58  and  _59
REMARK   26  A    between atoms: _64  and  _66
REMARK   27  A    between atoms: _66  and  _67
REMARK   28  A    between atoms: _66  and  _69
REMARK   29  A    between atoms: _69  and  _70
REMARK   30  A    between atoms: _73  and  _75
REMARK   31  A    between atoms: _75  and  _76
REMARK   32  A    between atoms: _75  and  _78
REMARK   33  A    between atoms: _78  and  _79
REMARK   34  A    between atoms: _79  and  _80
REMARK   35  A    between atoms: _82  and  _84
REMARK   36  A    between atoms: _84  and  _85
REMARK   37  A    between atoms: _84  and  _87
REMARK   38  A    between atoms: _87  and  _88
REMARK   39  A    between atoms: _88  and  _89
REMARK   40  A    between atoms: _89  and  _90
REMARK   41  A    between atoms: _99  and  _101
REMARK   42  A    between atoms: _101  and  _102
REMARK   43  A    between atoms: _101  and  _104
REMARK   44  A    between atoms: _104  and  _105
REMARK   45  A    between atoms: _110  and  _112
REMARK   46  A    between atoms: _112  and  _113
REMARK   47  A    between atoms: _112  and  _115
REMARK   48  A    between atoms: _115  and  _116
REMARK   49  A    between atoms: _121  and  _123
REMARK   50  A    between atoms: _123  and  _124
REMARK   51  A    between atoms: _123  and  _126
REMARK   52  A    between atoms: _126  and  _127
REMARK   53  A    between atoms: _127  and  _128
REMARK   54  A    between atoms: _128  and  _129
REMARK   55  A    between atoms: _138  and  _140
REMARK   56  A    between atoms: _140  and  _141
REMARK   57  A    between atoms: _140  and  _143
REMARK   58  A    between atoms: _143  and  _144
REMARK   59  A    between atoms: _146  and  _148
REMARK   60  A    between atoms: _148  and  _149
REMARK   61  A    between atoms: _148  and  _151
REMARK   62  A    between atoms: _151  and  _152
REMARK   63  A    between atoms: _157  and  _159
REMARK   64  A    between atoms: _159  and  _160
REMARK   65  A    between atoms: _159  and  _162
REMARK   66  A    between atoms: _162  and  _163
REMARK   67  A    between atoms: _163  and  _164
REMARK   68  A    between atoms: _167  and  _169
REMARK   69  A    between atoms: _169  and  _170
REMARK   70  A    between atoms: _169  and  _172
REMARK   71  A    between atoms: _172  and  _173
REMARK   72  A    between atoms: _173  and  _174
REMARK   73  A    between atoms: _177  and  _179
REMARK   74  A    between atoms: _179  and  _180
REMARK   75  A    between atoms: _179  and  _182
REMARK   76  A    between atoms: _182  and  _183
REMARK   77  A    between atoms: _184  and  MG_443
REMARK   78  A    between atoms: _188  and  _190
REMARK   79  A    between atoms: _190  and  _191
REMARK   80  A    between atoms: _190  and  _193
REMARK   81  A    between atoms: _193  and  _194
REMARK   82  A    between atoms: _199  and  _201
REMARK   83  A    between atoms: _201  and  _202
REMARK   84  A    between atoms: _201  and  _204
REMARK   85  A    between atoms: _204  and  _205
REMARK   86  A    between atoms: _205  and  _206
REMARK   87  A    between atoms: _209  and  _211
REMARK   88  A    between atoms: _211  and  _212
REMARK   89  A    between atoms: _211  and  _214
REMARK   90  A    between atoms: _214  and  _215
REMARK   91  A    between atoms: _215  and  _216
REMARK   92  A    between atoms: _219  and  _221
REMARK   93  A    between atoms: _221  and  _222
REMARK   94  A    between atoms: _221  and  _224
REMARK   95  A    between atoms: _224  and  _225
REMARK   96  A    between atoms: _225  and  _226
REMARK   97  A    between atoms: _228  and  _230
REMARK   98  A    between atoms: _230  and  _231
REMARK   99  A    between atoms: _230  and  _233
REMARK  100  A    between atoms: _233  and  _234
REMARK  101  A    between atoms: _239  and  _240
REMARK  102  A    between atoms: _242  and  _244
REMARK  103  A    between atoms: _244  and  _245
REMARK  104  A    between atoms: _244  and  _247
REMARK  105  A    between atoms: _247  and  _248
REMARK  106  A    between atoms: _248  and  _249
REMARK  107  A    between atoms: _249  and  _250
REMARK  108  A    between atoms: _250  and  _251
REMARK  109  A    between atoms: _255  and  _257
REMARK  110  A    between atoms: _257  and  _258
REMARK  111  A    between atoms: _257  and  _260
REMARK  112  A    between atoms: _262  and  _264
REMARK  113  A    between atoms: _264  and  _265
REMARK  114  A    between atoms: _264  and  _267
REMARK  115  A    between atoms: _267  and  _268
REMARK  116  A    between atoms: _268  and  _269
REMARK  117  A    between atoms: _272  and  _274
REMARK  118  A    between atoms: _274  and  _275
REMARK  119  A    between atoms: _274  and  _277
REMARK  120  A    between atoms: _277  and  _278
REMARK  121  A    between atoms: _283  and  _285
REMARK  122  A    between atoms: _285  and  _286
REMARK  123  A    between atoms: _289  and  _291
REMARK  124  A    between atoms: _291  and  _292
REMARK  125  A    between atoms: _291  and  _294
REMARK  126  A    between atoms: _294  and  _295
REMARK  127  A    between atoms: _295  and  _296
REMARK  128  A    between atoms: _298  and  _300
REMARK  129  A    between atoms: _300  and  _301
REMARK  130  A    between atoms: _300  and  _303
REMARK  131  A    between atoms: _303  and  _304
REMARK  132  A    between atoms: _314  and  _316
REMARK  133  A    between atoms: _316  and  _317
REMARK  134  A    between atoms: _316  and  _319
REMARK  135  A    between atoms: _319  and  _320
REMARK  136  A    between atoms: _323  and  _325
REMARK  137  A    between atoms: _325  and  _326
REMARK  138  A    between atoms: _325  and  _328
REMARK  139  A    between atoms: _328  and  _329
REMARK  140  A    between atoms: _329  and  _330
REMARK  141  A    between atoms: _335  and  _337
REMARK  142  A    between atoms: _337  and  _338
REMARK  143  A    between atoms: _337  and  _340
REMARK  144  A    between atoms: _340  and  _341
REMARK  145  A    between atoms: _341  and  _342
REMARK  146  A    between atoms: _347  and  _349
REMARK  147  A    between atoms: _349  and  _350
REMARK  148  A    between atoms: _349  and  _352
REMARK  149  A    between atoms: _352  and  _353
REMARK  150  A    between atoms: _359  and  _361
REMARK  151  A    between atoms: _361  and  _362
REMARK  152  A    between atoms: _361  and  _364
REMARK  153  A    between atoms: _366  and  _368
REMARK  154  A    between atoms: _368  and  _369
REMARK  155  A    between atoms: _368  and  _371
REMARK  156  A    between atoms: _371  and  _372
REMARK  157  A    between atoms: _372  and  _373
REMARK  158  A    between atoms: _375  and  _377
REMARK  159  A    between atoms: _377  and  _378
REMARK  160  A    between atoms: _377  and  _380
REMARK  161  A    between atoms: _380  and  _381
REMARK  162  A    between atoms: _381  and  _382
REMARK  163  A    between atoms: _381  and  _383
REMARK  164  A    between atoms: _386  and  _388
REMARK  165  A    between atoms: _388  and  _389
REMARK  166  A    between atoms: _391  and  _393
REMARK  167  A    between atoms: _393  and  _394
REMARK  168  A    between atoms: _393  and  _396
REMARK  169  A    between atoms: _396  and  _397
REMARK  170  A    between atoms: _400  and  _402
REMARK  171  A    between atoms: _402  and  _403
REMARK  172  A    between atoms: _402  and  _405
REMARK  173  A    between atoms: _405  and  _406
REMARK  174  A    between atoms: _409  and  _411
REMARK  175  A    between atoms: _411  and  _412
REMARK  176  A    between atoms: _411  and  _414
REMARK  177  A    between atoms: _414  and  _415
REMARK  178  A    between atoms: _417  and  _419
REMARK  179  A    between atoms: _419  and  _420
REMARK  180  A    between atoms: _419  and  _422
REMARK  181  A    between atoms: _422  and  _423
REMARK  182  A    between atoms: _433  and  _435
REMARK  183  A    between atoms: _435  and  _436
REMARK  184  A    between atoms: _435  and  _438
REMARK  185  A    between atoms: _438  and  _439
REMARK  186  A    between atoms: _439  and  _440
REMARK                            x       y       z     vdW  Elec       q    Type
REMARK                         _______ _______ _______ _____ _____    ______ ____
ROOT
ATOM      1  CB  GLN A   1      -7.265 -35.945 -33.965  0.00  0.00    +0.035 C 
ENDROOT
BRANCH   1   2
ATOM      2  CA  GLN A   1      -6.787 -35.952 -35.422  0.00  0.00    +0.134 C 
BRANCH   2   3
ATOM      3  N   GLN A   1      -6.999 -34.654 -36.060  0.00  0.00    -0.239 NA
ATOM      4  H   GLN A   1      -7.827 -34.079 -35.804  0.00  0.00    +0.142 HD
ENDBRANCH   2   3
BRANCH   2   5
ATOM      5  C   GLN A   1      -7.416 -37.117 -36.209  0.00  0.00    +0.224 C 
ATOM      6  O   GLN A   1      -8.015 -38.022 -35.618  0.00  0.00    -0.287 OA
ENDBRANCH   2   5
ENDBRANCH   1   2
BRANCH   1   7
ATOM      7  CG  GLN A   1      -6.294 -35.301 -32.980  0.00  0.00    +0.087 C 
BRANCH   7   8
ATOM      8  CD  GLN A   1      -6.638 -35.608 -31.532  0.00  0.00    +0.219 C 
ATOM      9  NE2 GLN A   1      -7.065 -34.584 -30.798  0.00  0.00    -0.329 N 
ATOM     10 HE21 GLN A   1      -7.316 -34.729 -29.799  0.00  0.00    +0.145 HD
ATOM     11 HE22 GLN A   1      -7.148 -33.638 -31.223  0.00  0.00    +0.145 HD
ATOM     12  OE1 GLN A   1      -6.521 -36.752 -31.077  0.00  0.00    -0.275 OA
ENDBRANCH   7   8
ENDBRANCH   1   7
TORSDOF 5
REMARK  Name = ../refined-set-2016/3t2q/3t2q_pocket.pdb
REMARK  186 active torsions:
REMARK  status: ('A' for Active; 'I' for Inactive)
REMARK    1  A    between atoms: _1  and  _3
REMARK    2  A    between atoms: _3  and  _4
REMARK    3  A    between atoms: _3  and  _6
REMARK    4  A    between atoms: _6  and  _7
REMARK    5  A    between atoms: _12  and  _13
REMARK    6  A    between atoms: _15  and  _17
REMARK    7  A    between atoms: _17  and  _18
REMARK    8  A    between atoms: _17  and  _20
REMARK    9  A    between atoms: _20  and  _21
REMARK   10  A    between atoms: _24  and  _26
REMARK   11  A    between atoms: _26  and  _27
REMARK   12  A    between atoms: _26  and  _29
REMARK   13  A    between atoms: _29  and  _30
REMARK   14  A    between atoms: _35  and  _37
REMARK   15  A    between atoms: _37  and  _38
REMARK   16  A    between atoms: _37  and  _40
REMARK   17  A    between atoms: _43  and  _45
REMARK   18  A    between atoms: _45  and  _46
REMARK   19  A    between atoms: _45  and  _48
REMARK   20  A    between atoms: _48  and  _49
REMARK   21  A    between atoms: _52  and  _54
REMARK   22  A    between atoms: _54  and  _55
REMARK   23  A    between atoms: _54  and  _57
REMARK   24  A    between atoms: _57  and  _58
REMARK   25  A    between atoms: _58  and  _59
REMARK   26  A    between atoms: _64  and  _66
REMARK   27  A    between atoms: _66  and  _67
REMARK   28  A    between atoms: _66  and  _69
REMARK   29  A    between atoms: _69  and  _70
REMARK   30  A    between atoms: _73  and  _75
REMARK   31  A    between atoms: _75  and  _76
REMARK   32  A    between atoms: _75  and  _78
REMARK   33  A    between atoms: _78  and  _79
REMARK   34  A    between atoms: _79  and  _80
REMARK   35  A    between atoms: _82  and  _84
REMARK   36  A    between atoms: _84  and  _85
REMARK   37  A    between atoms: _84  and  _87
REMARK   38  A    between atoms: _87  and  _88
REMARK   39  A    between atoms: _88  and  _89
REMARK   40  A    between atoms: _89  and  _90
REMARK   41  A    between atoms: _99  and  _101
REMARK   42  A    between atoms: _101  and  _102
REMARK   43  A    between atoms: _101  and  _104
REMARK   44  A    between atoms: _104  and  _105
REMARK   45  A    between atoms: _110  and  _112
REMARK   46  A    between atoms: _112  and  _113
REMARK   47  A    between atoms: _112  and  _115
REMARK   48  A    between atoms: _115  and  _116
REMARK   49  A    between atoms: _121  and  _123
REMARK   50  A    between atoms: _123  and  _124
REMARK   51  A    between atoms: _123  and  _126
REMARK   52  A    between atoms: _126  and  _127
REMARK   53  A    between atoms: _127  and  _128
REMARK   54  A    between atoms: _128  and  _129
REMARK   55  A    between atoms: _138  and  _140
REMARK   56  A    between atoms: _140  and  _141
REMARK   57  A    between atoms: _140  and  _143
REMARK   58  A    between atoms: _143  and  _144
REMARK   59  A    between atoms: _146  and  _148
REMARK   60  A    between atoms: _148  and  _149
REMARK   61  A    between atoms: _148  and  _151
REMARK   62  A    between atoms: _151  and  _152
REMARK   63  A    between atoms: _157  and  _159
REMARK   64  A    between atoms: _159  and  _160
REMARK   65  A    between atoms: _159  and  _162
REMARK   66  A    between atoms: _162  and  _163
REMARK   67  A    between atoms: _163  and  _164
REMARK   68  A    between atoms: _167  and  _169
REMARK   69  A    between atoms: _169  and  _170
REMARK   70  A    between atoms: _169  and  _172
REMARK   71  A    between atoms: _172  and  _173
REMARK   72  A    between atoms: _173  and  _174
REMARK   73  A    between atoms: _177  and  _179
REMARK   74  A    between atoms: _179  and  _180
REMARK   75  A    between atoms: _179  and  _182
REMARK   76  A    between atoms: _182  and  _183
REMARK   77  A    between atoms: _184  and  MG_443
REMARK   78  A    between atoms: _188  and  _190
REMARK   79  A    between atoms: _190  and  _191
REMARK   80  A    between atoms: _190  and  _193
REMARK   81  A    between atoms: _193  and  _194
REMARK   82  A    between atoms: _199  and  _201
REMARK   83  A    between atoms: _201  and  _202
REMARK   84  A    between atoms: _201  and  _204
REMARK   85  A    between atoms: _204  and  _205
REMARK   86  A    between atoms: _205  and  _206
REMARK   87  A    between atoms: _209  and  _211
REMARK   88  A    between atoms: _211  and  _212
REMARK   89  A    between atoms: _211  and  _214
REMARK   90  A    between atoms: _214  and  _215
REMARK   91  A    between atoms: _215  and  _216
REMARK   92  A    between atoms: _219  and  _221
REMARK   93  A    between atoms: _221  and  _222
REMARK   94  A    between atoms: _221  and  _224
REMARK   95  A    between atoms: _224  and  _225
REMARK   96  A    between atoms: _225  and  _226
REMARK   97  A    between atoms: _228  and  _230
REMARK   98  A    between atoms: _230  and  _231
REMARK   99  A    between atoms: _230  and  _233
REMARK  100  A    between atoms: _233  and  _234
REMARK  101  A    between atoms: _239  and  _240
REMARK  102  A    between atoms: _242  and  _244
REMARK  103  A    between atoms: _244  and  _245
REMARK  104  A    between atoms: _244  and  _247
REMARK  105  A    between atoms: _247  and  _248
REMARK  106  A    between atoms: _248  and  _249
REMARK  107  A    between atoms: _249  and  _250
REMARK  108  A    between atoms: _250  and  _251
REMARK  109  A    between atoms: _255  and  _257
REMARK  110  A    between atoms: _257  and  _258
REMARK  111  A    between atoms: _257  and  _260
REMARK  112  A    between atoms: _262  and  _264
REMARK  113  A    between atoms: _264  and  _265
REMARK  114  A    between atoms: _264  and  _267
REMARK  115  A    between atoms: _267  and  _268
REMARK  116  A    between atoms: _268  and  _269
REMARK  117  A    between atoms: _272  and  _274
REMARK  118  A    between atoms: _274  and  _275
REMARK  119  A    between atoms: _274  and  _277
REMARK  120  A    between atoms: _277  and  _278
REMARK  121  A    between atoms: _283  and  _285
REMARK  122  A    between atoms: _285  and  _286
REMARK  123  A    between atoms: _289  and  _291
REMARK  124  A    between atoms: _291  and  _292
REMARK  125  A    between atoms: _291  and  _294
REMARK  126  A    between atoms: _294  and  _295
REMARK  127  A    between atoms: _295  and  _296
REMARK  128  A    between atoms: _298  and  _300
REMARK  129  A    between atoms: _300  and  _301
REMARK  130  A    between atoms: _300  and  _303
REMARK  131  A    between atoms: _303  and  _304
REMARK  132  A    between atoms: _314  and  _316
REMARK  133  A    between atoms: _316  and  _317
REMARK  134  A    between atoms: _316  and  _319
REMARK  135  A    between atoms: _319  and  _320
REMARK  136  A    between atoms: _323  and  _325
REMARK  137  A    between atoms: _325  and  _326
REMARK  138  A    between atoms: _325  and  _328
REMARK  139  A    between atoms: _328  and  _329
REMARK  140  A    between atoms: _329  and  _330
REMARK  141  A    between atoms: _335  and  _337
REMARK  142  A    between atoms: _337  and  _338
REMARK  143  A    between atoms: _337  and  _340
REMARK  144  A    between atoms: _340  and  _341
REMARK  145  A    between atoms: _341  and  _342
REMARK  146  A    between atoms: _347  and  _349
REMARK  147  A    between atoms: _349  and  _350
REMARK  148  A    between atoms: _349  and  _352
REMARK  149  A    between atoms: _352  and  _353
REMARK  150  A    between atoms: _359  and  _361
REMARK  151  A    between atoms: _361  and  _362
REMARK  152  A    between atoms: _361  and  _364
REMARK  153  A    between atoms: _366  and  _368
REMARK  154  A    between atoms: _368  and  _369
REMARK  155  A    between atoms: _368  and  _371
REMARK  156  A    between atoms: _371  and  _372
REMARK  157  A    between atoms: _372  and  _373
REMARK  158  A    between atoms: _375  and  _377
REMARK  159  A    between atoms: _377  and  _378
REMARK  160  A    between atoms: _377  and  _380
REMARK  161  A    between atoms: _380  and  _381
REMARK  162  A    between atoms: _381  and  _382
REMARK  163  A    between atoms: _381  and  _383
REMARK  164  A    between atoms: _386  and  _388
REMARK  165  A    between atoms: _388  and  _389
REMARK  166  A    between atoms: _391  and  _393
REMARK  167  A    between atoms: _393  and  _394
REMARK  168  A    between atoms: _393  and  _396
REMARK  169  A    between atoms: _396  and  _397
REMARK  170  A    between atoms: _400  and  _402
REMARK  171  A    between atoms: _402  and  _403
REMARK  172  A    between atoms: _402  and  _405
REMARK  173  A    between atoms: _405  and  _406
REMARK  174  A    between atoms: _409  and  _411
REMARK  175  A    between atoms: _411  and  _412
REMARK  176  A    between atoms: _411  and  _414
REMARK  177  A    between atoms: _414  and  _415
REMARK  178  A    between atoms: _417  and  _419
REMARK  179  A    between atoms: _419  and  _420
REMARK  180  A    between atoms: _419  and  _422
REMARK  181  A    between atoms: _422  and  _423
REMARK  182  A    between atoms: _433  and  _435
REMARK  183  A    between atoms: _435  and  _436
REMARK  184  A    between atoms: _435  and  _438
REMARK  185  A    between atoms: _438  and  _439
REMARK  186  A    between atoms: _439  and  _440
REMARK                            x       y       z     vdW  Elec       q    Type
REMARK                         _______ _______ _______ _____ _____    ______ ____
ROOT
ATOM      1  CA  CYS A   3     -11.667 -34.388 -33.457  0.00  0.00    +0.000 C 
ENDROOT
BRANCH   1   2
ATOM      2  C   CYS A   3     -10.754 -33.694 -34.463  0.00  0.00    +0.000 C 
ATOM      3  O   CYS A   3      -9.544 -33.586 -34.243  0.00  0.00    +0.000 OA
ATOM      4  N   MET A   4     -11.333 -33.216 -35.559  0.00  0.00    +0.000 N 
ATOM      5  H   MET A   4     -12.357 -33.338 -35.691  0.00  0.00    +0.000 HD
BRANCH   4   6
ATOM      6  CA  MET A   4     -10.555 -32.521 -36.583  0.00  0.00    +0.000 C 
BRANCH   6   7
ATOM      7  C   MET A   4     -10.774 -31.014 -36.533  0.00  0.00    +0.000 C 
ATOM      8  N   UNK A   5      -9.858 -30.335 -35.843  0.00  0.00    +0.000 N 
ATOM      9  H   UNK A   5      -9.079 -30.863 -35.400  0.00  0.00    +0.000 HD
ATOM     10  O   MET A   4     -11.742 -30.492 -37.087  0.00  0.00    +0.000 OA
BRANCH   8  11
ATOM     11  C   UNK A   5      -9.897 -28.886 -35.680  0.00  0.00    +0.000 C 
BRANCH  11  12
ATOM     12  C   UNK A   5      -8.566 -28.280 -36.107  0.00  0.00    +0.000 C 
ATOM     13  O   UNK A   5      -8.239 -27.144 -35.733  0.00  0.00    +0.000 OA
ATOM     14  N   GLY A   6      -7.799 -29.037 -36.886  0.00  0.00    +0.000 N 
ATOM     15  H   GLY A   6      -8.185 -29.922 -37.272  0.00  0.00    +0.000 HD
BRANCH  14  16
ATOM     16  CA  GLY A   6      -6.428 -28.655 -37.212  0.00  0.00    +0.000 C 
BRANCH  16  17
ATOM     17  C   GLY A   6      -6.257 -27.530 -38.210  0.00  0.00    +0.000 C 
ATOM     18  O   GLY A   6      -7.125 -27.281 -39.051  0.00  0.00    +0.000 OA
ENDBRANCH  16  17
ENDBRANCH  14  16
ENDBRANCH  11  12
BRANCH  11  19
ATOM     19  C   UNK A   5     -10.179 -28.489 -34.220  0.00  0.00    +0.000 C 
BRANCH  19  20
ATOM     20  C   UNK A   5     -11.054 -29.489 -33.480  0.00  0.00    +0.000 C 
BRANCH  20  21
ATOM     21  N   UNK A   5     -12.301 -29.628 -33.914  0.00  0.00    +0.000 NA
ATOM     22  H   UNK A   5     -12.947 -30.289 -33.437  0.00  0.00    +0.000 HD
ATOM     23  H   UNK A   5     -12.632 -29.076 -34.731  0.00  0.00    +0.000 HD
ENDBRANCH  20  21
BRANCH  20  24
ATOM     24  O   UNK A   5     -10.609 -30.120 -32.514  0.00  0.00    +0.000 OA
ATOM     25 NA   UNK A   5     -11.815 -31.215 -30.778  0.00  0.00    +0.000 Na
ENDBRANCH  20  24
ENDBRANCH  19  20
ENDBRANCH  11  19
ENDBRANCH   8  11
ENDBRANCH   6   7
BRANCH   6  26
ATOM     26  CB  MET A   4     -10.844 -33.087 -37.974  0.00  0.00    +0.000 C 
BRANCH  26  27
ATOM     27  CG  MET A   4     -10.321 -34.517 -38.163  0.00  0.00    +0.000 C 
BRANCH  27  28
ATOM     28  SD  MET A   4     -10.994 -35.346 -39.609  0.00  0.00    +0.000 S 
ATOM     29  CE  MET A   4     -12.737 -34.954 -39.441  0.00  0.00    +0.000 C 
ENDBRANCH  27  28
ENDBRANCH  26  27
ENDBRANCH   6  26
ENDBRANCH   4   6
ENDBRANCH   1   2
BRANCH   1  32
ATOM     30  C   PHE A   2     -13.715 -33.059 -33.224  0.00  0.00    +0.000 C 
ATOM     31  O   PHE A   2     -13.179 -32.255 -32.443  0.00  0.00    +0.000 OA
ATOM     32  N   CYS A   3     -13.083 -34.125 -33.719  0.00  0.00    +0.000 N 
ATOM     33  H   CYS A   3     -13.616 -34.793 -34.312  0.00  0.00    +0.000 HD
BRANCH  30  34
ATOM     34  CA  PHE A   2     -15.171 -32.863 -33.685  0.00  0.00    +0.000 C 
BRANCH  34  36
ATOM     35  C   GLN A   1     -15.169 -33.900 -35.906  0.00  0.00    +0.000 C 
ATOM     36  N   PHE A   2     -15.599 -33.881 -34.645  0.00  0.00    +0.000 N 
ATOM     37  H   PHE A   2     -16.263 -34.617 -34.331  0.00  0.00    +0.000 HD
ATOM     38  O   GLN A   1     -14.352 -33.083 -36.351  0.00  0.00    +0.000 OA
BRANCH  35  39
ATOM     39  CA  GLN A   1     -15.730 -35.013 -36.808  0.00  0.00    +0.000 C 
BRANCH  39  40
ATOM     40  N   GLN A   1     -16.739 -35.867 -36.160  0.00  0.00    +0.000 NA
ATOM     41  H   GLN A   1     -17.744 -35.683 -36.355  0.00  0.00    +0.000 HD
ENDBRANCH  39  40
BRANCH  39  42
ATOM     42  CB  GLN A   1     -16.277 -34.428 -38.127  0.00  0.00    +0.000 C 
BRANCH  42  43
ATOM     43  CG  GLN A   1     -17.301 -33.288 -37.975  0.00  0.00    +0.000 C 
BRANCH  43  44
ATOM     44  CD  GLN A   1     -18.752 -33.756 -37.861  0.00  0.00    +0.000 C 
ATOM     45  OE1 GLN A   1     -19.048 -34.803 -37.282  0.00  0.00    +0.000 OA
ATOM     46  NE2 GLN A   1     -19.666 -32.962 -38.410  0.00  0.00    +0.000 N 
ATOM     47 HE21 GLN A   1     -20.673 -33.216 -38.360  0.00  0.00    +0.000 HD
ATOM     48 HE22 GLN A   1     -19.374 -32.087 -38.890  0.00  0.00    +0.000 HD
ENDBRANCH  43  44
ENDBRANCH  42  43
ENDBRANCH  39  42
ENDBRANCH  35  39
ENDBRANCH  34  36
BRANCH  34  49
ATOM     49  CB  PHE A   2     -16.136 -32.821 -32.492  0.00  0.00    +0.000 C 
BRANCH  49  50
ATOM     50  CG  PHE A   2     -16.156 -31.498 -31.776  0.00  0.00    +0.000 A 
ATOM     51  CD2 PHE A   2     -15.579 -31.370 -30.514  0.00  0.00    +0.000 A 
ATOM     52  CE2 PHE A   2     -15.589 -30.146 -29.845  0.00  0.00    +0.000 A 
ATOM     53  CZ  PHE A   2     -16.186 -29.035 -30.437  0.00  0.00    +0.000 A 
ATOM     54  CE1 PHE A   2     -16.774 -29.149 -31.699  0.00  0.00    +0.000 A 
ATOM     55  CD1 PHE A   2     -16.755 -30.378 -32.360  0.00  0.00    +0.000 A 
ENDBRANCH  49  50
ENDBRANCH  34  49
ENDBRANCH  30  34
ENDBRANCH   1  32
BRANCH   1  56
ATOM     56  CB  CYS A   3     -11.376 -35.896 -33.403  0.00  0.00    +0.000 C 
ATOM     57  SG  CYS A   3     -11.934 -36.887 -34.807  0.00  0.00    +0.000 S 
ENDBRANCH   1  56
TORSDOF 25
REMARK  Name = ../refined-set-2016/3t2q/3t2q_pocket.pdb
REMARK  186 active torsions:
REMARK  status: ('A' for Active; 'I' for Inactive)
REMARK    1  A    between atoms: _1  and  _3
REMARK    2  A    between atoms: _3  and  _4
REMARK    3  A    between atoms: _3  and  _6
REMARK    4  A    between atoms: _6  and  _7
REMARK    5  A    between atoms: _12  and  _13
REMARK    6  A    between atoms: _15  and  _17
REMARK    7  A    between atoms: _17  and  _18
REMARK    8  A    between atoms: _17  and  _20
REMARK    9  A    between atoms: _20  and  _21
REMARK   10  A    between atoms: _24  and  _26
REMARK   11  A    between atoms: _26  and  _27
REMARK   12  A    between atoms: _26  and  _29
REMARK   13  A    between atoms: _29  and  _30
REMARK   14  A    between atoms: _35  and  _37
REMARK   15  A    between atoms: _37  and  _38
REMARK   16  A    between atoms: _37  and  _40
REMARK   17  A    between atoms: _43  and  _45
REMARK   18  A    between atoms: _45  and  _46
REMARK   19  A    between atoms: _45  and  _48
REMARK   20  A    between atoms: _48  and  _49
REMARK   21  A    between atoms: _52  and  _54
REMARK   22  A    between atoms: _54  and  _55
REMARK   23  A    between atoms: _54  and  _57
REMARK   24  A    between atoms: _57  and  _58
REMARK   25  A    between atoms: _58  and  _59
REMARK   26  A    between atoms: _64  and  _66
REMARK   27  A    between atoms: _66  and  _67
REMARK   28  A    between atoms: _66  and  _69
REMARK   29  A    between atoms: _69  and  _70
REMARK   30  A    between atoms: _73  and  _75
REMARK   31  A    between atoms: _75  and  _76
REMARK   32  A    between atoms: _75  and  _78
REMARK   33  A    between atoms: _78  and  _79
REMARK   34  A    between atoms: _79  and  _80
REMARK   35  A    between atoms: _82  and  _84
REMARK   36  A    between atoms: _84  and  _85
REMARK   37  A    between atoms: _84  and  _87
REMARK   38  A    between atoms: _87  and  _88
REMARK   39  A    between atoms: _88  and  _89
REMARK   40  A    between atoms: _89  and  _90
REMARK   41  A    between atoms: _99  and  _101
REMARK   42  A    between atoms: _101  and  _102
REMARK   43  A    between atoms: _101  and  _104
REMARK   44  A    between atoms: _104  and  _105
REMARK   45  A    between atoms: _110  and  _112
REMARK   46  A    between atoms: _112  and  _113
REMARK   47  A    between atoms: _112  and  _115
REMARK   48  A    between atoms: _115  and  _116
REMARK   49  A    between atoms: _121  and  _123
REMARK   50  A    between atoms: _123  and  _124
REMARK   51  A    between atoms: _123  and  _126
REMARK   52  A    between atoms: _126  and  _127
REMARK   53  A    between atoms: _127  and  _128
REMARK   54  A    between atoms: _128  and  _129
REMARK   55  A    between atoms: _138  and  _140
REMARK   56  A    between atoms: _140  and  _141
REMARK   57  A    between atoms: _140  and  _143
REMARK   58  A    between atoms: _143  and  _144
REMARK   59  A    between atoms: _146  and  _148
REMARK   60  A    between atoms: _148  and  _149
REMARK   61  A    between atoms: _148  and  _151
REMARK   62  A    between atoms: _151  and  _152
REMARK   63  A    between atoms: _157  and  _159
REMARK   64  A    between atoms: _159  and  _160
REMARK   65  A    between atoms: _159  and  _162
REMARK   66  A    between atoms: _162  and  _163
REMARK   67  A    between atoms: _163  and  _164
REMARK   68  A    between atoms: _167  and  _169
REMARK   69  A    between atoms: _169  and  _170
REMARK   70  A    between atoms: _169  and  _172
REMARK   71  A    between atoms: _172  and  _173
REMARK   72  A    between atoms: _173  and  _174
REMARK   73  A    between atoms: _177  and  _179
REMARK   74  A    between atoms: _179  and  _180
REMARK   75  A    between atoms: _179  and  _182
REMARK   76  A    between atoms: _182  and  _183
REMARK   77  A    between atoms: _184  and  MG_443
REMARK   78  A    between atoms: _188  and  _190
REMARK   79  A    between atoms: _190  and  _191
REMARK   80  A    between atoms: _190  and  _193
REMARK   81  A    between atoms: _193  and  _194
REMARK   82  A    between atoms: _199  and  _201
REMARK   83  A    between atoms: _201  and  _202
REMARK   84  A    between atoms: _201  and  _204
REMARK   85  A    between atoms: _204  and  _205
REMARK   86  A    between atoms: _205  and  _206
REMARK   87  A    between atoms: _209  and  _211
REMARK   88  A    between atoms: _211  and  _212
REMARK   89  A    between atoms: _211  and  _214
REMARK   90  A    between atoms: _214  and  _215
REMARK   91  A    between atoms: _215  and  _216
REMARK   92  A    between atoms: _219  and  _221
REMARK   93  A    between atoms: _221  and  _222
REMARK   94  A    between atoms: _221  and  _224
REMARK   95  A    between atoms: _224  and  _225
REMARK   96  A    between atoms: _225  and  _226
REMARK   97  A    between atoms: _228  and  _230
REMARK   98  A    between atoms: _230  and  _231
REMARK   99  A    between atoms: _230  and  _233
REMARK  100  A    between atoms: _233  and  _234
REMARK  101  A    between atoms: _239  and  _240
REMARK  102  A    between atoms: _242  and  _244
REMARK  103  A    between atoms: _244  and  _245
REMARK  104  A    between atoms: _244  and  _247
REMARK  105  A    between atoms: _247  and  _248
REMARK  106  A    between atoms: _248  and  _249
REMARK  107  A    between atoms: _249  and  _250
REMARK  108  A    between atoms: _250  and  _251
REMARK  109  A    between atoms: _255  and  _257
REMARK  110  A    between atoms: _257  and  _258
REMARK  111  A    between atoms: _257  and  _260
REMARK  112  A    between atoms: _262  and  _264
REMARK  113  A    between atoms: _264  and  _265
REMARK  114  A    between atoms: _264  and  _267
REMARK  115  A    between atoms: _267  and  _268
REMARK  116  A    between atoms: _268  and  _269
REMARK  117  A    between atoms: _272  and  _274
REMARK  118  A    between atoms: _274  and  _275
REMARK  119  A    between atoms: _274  and  _277
REMARK  120  A    between atoms: _277  and  _278
REMARK  121  A    between atoms: _283  and  _285
REMARK  122  A    between atoms: _285  and  _286
REMARK  123  A    between atoms: _289  and  _291
REMARK  124  A    between atoms: _291  and  _292
REMARK  125  A    between atoms: _291  and  _294
REMARK  126  A    between atoms: _294  and  _295
REMARK  127  A    between atoms: _295  and  _296
REMARK  128  A    between atoms: _298  and  _300
REMARK  129  A    between atoms: _300  and  _301
REMARK  130  A    between atoms: _300  and  _303
REMARK  131  A    between atoms: _303  and  _304
REMARK  132  A    between atoms: _314  and  _316
REMARK  133  A    between atoms: _316  and  _317
REMARK  134  A    between atoms: _316  and  _319
REMARK  135  A    between atoms: _319  and  _320
REMARK  136  A    between atoms: _323  and  _325
REMARK  137  A    between atoms: _325  and  _326
REMARK  138  A    between atoms: _325  and  _328
REMARK  139  A    between atoms: _328  and  _329
REMARK  140  A    between atoms: _329  and  _330
REMARK  141  A    between atoms: _335  and  _337
REMARK  142  A    between atoms: _337  and  _338
REMARK  143  A    between atoms: _337  and  _340
REMARK  144  A    between atoms: _340  and  _341
REMARK  145  A    between atoms: _341  and  _342
REMARK  146  A    between atoms: _347  and  _349
REMARK  147  A    between atoms: _349  and  _350
REMARK  148  A    between atoms: _349  and  _352
REMARK  149  A    between atoms: _352  and  _353
REMARK  150  A    between atoms: _359  and  _361
REMARK  151  A    between atoms: _361  and  _362
REMARK  152  A    between atoms: _361  and  _364
REMARK  153  A    between atoms: _366  and  _368
REMARK  154  A    between atoms: _368  and  _369
REMARK  155  A    between atoms: _368  and  _371
REMARK  156  A    between atoms: _371  and  _372
REMARK  157  A    between atoms: _372  and  _373
REMARK  158  A    between atoms: _375  and  _377
REMARK  159  A    between atoms: _377  and  _378
REMARK  160  A    between atoms: _377  and  _380
REMARK  161  A    between atoms: _380  and  _381
REMARK  162  A    between atoms: _381  and  _382
REMARK  163  A    between atoms: _381  and  _383
REMARK  164  A    between atoms: _386  and  _388
REMARK  165  A    between atoms: _388  and  _389
REMARK  166  A    between atoms: _391  and  _393
REMARK  167  A    between atoms: _393  and  _394
REMARK  168  A    between atoms: _393  and  _396
REMARK  169  A    between atoms: _396  and  _397
REMARK  170  A    between atoms: _400  and  _402
REMARK  171  A    between atoms: _402  and  _403
REMARK  172  A    between atoms: _402  and  _405
REMARK  173  A    between atoms: _405  and  _406
REMARK  174  A    between atoms: _409  and  _411
REMARK  175  A    between atoms: _411  and  _412
REMARK  176  A    between atoms: _411  and  _414
REMARK  177  A    between atoms: _414  and  _415
REMARK  178  A    between atoms: _417  and  _419
REMARK  179  A    between atoms: _419  and  _420
REMARK  180  A    between atoms: _419  and  _422
REMARK  181  A    between atoms: _422  and  _423
REMARK  182  A    between atoms: _433  and  _435
REMARK  183  A    between atoms: _435  and  _436
REMARK  184  A    between atoms: _435  and  _438
REMARK  185  A    between atoms: _438  and  _439
REMARK  186  A    between atoms: _439  and  _440
REMARK                            x       y       z     vdW  Elec       q    Type
REMARK                         _______ _______ _______ _____ _____    ______ ____
ROOT
ATOM      1  CA  ASP A   1     -19.545 -30.450 -29.951  0.00  0.00    +0.144 C 
ENDROOT
BRANCH   1   2
ATOM      2  N   ASP A   1     -20.846 -29.964 -30.444  0.00  0.00    -0.239 NA
ATOM      3  H   ASP A   1     -21.524 -29.574 -29.759  0.00  0.00    +0.142 HD
ENDBRANCH   1   2
BRANCH   1   4
ATOM      4  C   ASP A   1     -19.650 -31.925 -29.557  0.00  0.00    +0.225 C 
ATOM      5  O   ASP A   1     -18.636 -32.620 -29.354  0.00  0.00    -0.287 OA
ENDBRANCH   1   4
BRANCH   1   6
ATOM      6  CB  ASP A   1     -19.027 -29.598 -28.772  0.00  0.00    +0.139 C 
BRANCH   6   7
ATOM      7  CG  ASP A   1     -20.049 -29.435 -27.647  0.00  0.00    +0.367 C 
ATOM      8  OD2 ASP A   1     -19.749 -28.682 -26.690  0.00  0.00    -0.246 OA
ATOM      9  OD1 ASP A   1     -21.142 -30.050 -27.713  0.00  0.00    -0.246 OA
ENDBRANCH   6   7
ENDBRANCH   1   6
TORSDOF 4
REMARK  Name = ../refined-set-2016/3t2q/3t2q_pocket.pdb
REMARK  186 active torsions:
REMARK  status: ('A' for Active; 'I' for Inactive)
REMARK    1  A    between atoms: _1  and  _3
REMARK    2  A    between atoms: _3  and  _4
REMARK    3  A    between atoms: _3  and  _6
REMARK    4  A    between atoms: _6  and  _7
REMARK    5  A    between atoms: _12  and  _13
REMARK    6  A    between atoms: _15  and  _17
REMARK    7  A    between atoms: _17  and  _18
REMARK    8  A    between atoms: _17  and  _20
REMARK    9  A    between atoms: _20  and  _21
REMARK   10  A    between atoms: _24  and  _26
REMARK   11  A    between atoms: _26  and  _27
REMARK   12  A    between atoms: _26  and  _29
REMARK   13  A    between atoms: _29  and  _30
REMARK   14  A    between atoms: _35  and  _37
REMARK   15  A    between atoms: _37  and  _38
REMARK   16  A    between atoms: _37  and  _40
REMARK   17  A    between atoms: _43  and  _45
REMARK   18  A    between atoms: _45  and  _46
REMARK   19  A    between atoms: _45  and  _48
REMARK   20  A    between atoms: _48  and  _49
REMARK   21  A    between atoms: _52  and  _54
REMARK   22  A    between atoms: _54  and  _55
REMARK   23  A    between atoms: _54  and  _57
REMARK   24  A    between atoms: _57  and  _58
REMARK   25  A    between atoms: _58  and  _59
REMARK   26  A    between atoms: _64  and  _66
REMARK   27  A    between atoms: _66  and  _67
REMARK   28  A    between atoms: _66  and  _69
REMARK   29  A    between atoms: _69  and  _70
REMARK   30  A    between atoms: _73  and  _75
REMARK   31  A    between atoms: _75  and  _76
REMARK   32  A    between atoms: _75  and  _78
REMARK   33  A    between atoms: _78  and  _79
REMARK   34  A    between atoms: _79  and  _80
REMARK   35  A    between atoms: _82  and  _84
REMARK   36  A    between atoms: _84  and  _85
REMARK   37  A    between atoms: _84  and  _87
REMARK   38  A    between atoms: _87  and  _88
REMARK   39  A    between atoms: _88  and  _89
REMARK   40  A    between atoms: _89  and  _90
REMARK   41  A    between atoms: _99  and  _101
REMARK   42  A    between atoms: _101  and  _102
REMARK   43  A    between atoms: _101  and  _104
REMARK   44  A    between atoms: _104  and  _105
REMARK   45  A    between atoms: _110  and  _112
REMARK   46  A    between atoms: _112  and  _113
REMARK   47  A    between atoms: _112  and  _115
REMARK   48  A    between atoms: _115  and  _116
REMARK   49  A    between atoms: _121  and  _123
REMARK   50  A    between atoms: _123  and  _124
REMARK   51  A    between atoms: _123  and  _126
REMARK   52  A    between atoms: _126  and  _127
REMARK   53  A    between atoms: _127  and  _128
REMARK   54  A    between atoms: _128  and  _129
REMARK   55  A    between atoms: _138  and  _140
REMARK   56  A    between atoms: _140  and  _141
REMARK   57  A    between atoms: _140  and  _143
REMARK   58  A    between atoms: _143  and  _144
REMARK   59  A    between atoms: _146  and  _148
REMARK   60  A    between atoms: _148  and  _149
REMARK   61  A    between atoms: _148  and  _151
REMARK   62  A    between atoms: _151  and  _152
REMARK   63  A    between atoms: _157  and  _159
REMARK   64  A    between atoms: _159  and  _160
REMARK   65  A    between atoms: _159  and  _162
REMARK   66  A    between atoms: _162  and  _163
REMARK   67  A    between atoms: _163  and  _164
REMARK   68  A    between atoms: _167  and  _169
REMARK   69  A    between atoms: _169  and  _170
REMARK   70  A    between atoms: _169  and  _172
REMARK   71  A    between atoms: _172  and  _173
REMARK   72  A    between atoms: _173  and  _174
REMARK   73  A    between atoms: _177  and  _179
REMARK   74  A    between atoms: _179  and  _180
REMARK   75  A    between atoms: _179  and  _182
REMARK   76  A    between atoms: _182  and  _183
REMARK   77  A    between atoms: _184  and  MG_443
REMARK   78  A    between atoms: _188  and  _190
REMARK   79  A    between atoms: _190  and  _191
REMARK   80  A    between atoms: _190  and  _193
REMARK   81  A    between atoms: _193  and  _194
REMARK   82  A    between atoms: _199  and  _201
REMARK   83  A    between atoms: _201  and  _202
REMARK   84  A    between atoms: _201  and  _204
REMARK   85  A    between atoms: _204  and  _205
REMARK   86  A    between atoms: _205  and  _206
REMARK   87  A    between atoms: _209  and  _211
REMARK   88  A    between atoms: _211  and  _212
REMARK   89  A    between atoms: _211  and  _214
REMARK   90  A    between atoms: _214  and  _215
REMARK   91  A    between atoms: _215  and  _216
REMARK   92  A    between atoms: _219  and  _221
REMARK   93  A    between atoms: _221  and  _222
REMARK   94  A    between atoms: _221  and  _224
REMARK   95  A    between atoms: _224  and  _225
REMARK   96  A    between atoms: _225  and  _226
REMARK   97  A    between atoms: _228  and  _230
REMARK   98  A    between atoms: _230  and  _231
REMARK   99  A    between atoms: _230  and  _233
REMARK  100  A    between atoms: _233  and  _234
REMARK  101  A    between atoms: _239  and  _240
REMARK  102  A    between atoms: _242  and  _244
REMARK  103  A    between atoms: _244  and  _245
REMARK  104  A    between atoms: _244  and  _247
REMARK  105  A    between atoms: _247  and  _248
REMARK  106  A    between atoms: _248  and  _249
REMARK  107  A    between atoms: _249  and  _250
REMARK  108  A    between atoms: _250  and  _251
REMARK  109  A    between atoms: _255  and  _257
REMARK  110  A    between atoms: _257  and  _258
REMARK  111  A    between atoms: _257  and  _260
REMARK  112  A    between atoms: _262  and  _264
REMARK  113  A    between atoms: _264  and  _265
REMARK  114  A    between atoms: _264  and  _267
REMARK  115  A    between atoms: _267  and  _268
REMARK  116  A    between atoms: _268  and  _269
REMARK  117  A    between atoms: _272  and  _274
REMARK  118  A    between atoms: _274  and  _275
REMARK  119  A    between atoms: _274  and  _277
REMARK  120  A    between atoms: _277  and  _278
REMARK  121  A    between atoms: _283  and  _285
REMARK  122  A    between atoms: _285  and  _286
REMARK  123  A    between atoms: _289  and  _291
REMARK  124  A    between atoms: _291  and  _292
REMARK  125  A    between atoms: _291  and  _294
REMARK  126  A    between atoms: _294  and  _295
REMARK  127  A    between atoms: _295  and  _296
REMARK  128  A    between atoms: _298  and  _300
REMARK  129  A    between atoms: _300  and  _301
REMARK  130  A    between atoms: _300  and  _303
REMARK  131  A    between atoms: _303  and  _304
REMARK  132  A    between atoms: _314  and  _316
REMARK  133  A    between atoms: _316  and  _317
REMARK  134  A    between atoms: _316  and  _319
REMARK  135  A    between atoms: _319  and  _320
REMARK  136  A    between atoms: _323  and  _325
REMARK  137  A    between atoms: _325  and  _326
REMARK  138  A    between atoms: _325  and  _328
REMARK  139  A    between atoms: _328  and  _329
REMARK  140  A    between atoms: _329  and  _330
REMARK  141  A    between atoms: _335  and  _337
REMARK  142  A    between atoms: _337  and  _338
REMARK  143  A    between atoms: _337  and  _340
REMARK  144  A    between atoms: _340  and  _341
REMARK  145  A    between atoms: _341  and  _342
REMARK  146  A    between atoms: _347  and  _349
REMARK  147  A    between atoms: _349  and  _350
REMARK  148  A    between atoms: _349  and  _352
REMARK  149  A    between atoms: _352  and  _353
REMARK  150  A    between atoms: _359  and  _361
REMARK  151  A    between atoms: _361  and  _362
REMARK  152  A    between atoms: _361  and  _364
REMARK  153  A    between atoms: _366  and  _368
REMARK  154  A    between atoms: _368  and  _369
REMARK  155  A    between atoms: _368  and  _371
REMARK  156  A    between atoms: _371  and  _372
REMARK  157  A    between atoms: _372  and  _373
REMARK  158  A    between atoms: _375  and  _377
REMARK  159  A    between atoms: _377  and  _378
REMARK  160  A    between atoms: _377  and  _380
REMARK  161  A    between atoms: _380  and  _381
REMARK  162  A    between atoms: _381  and  _382
REMARK  163  A    between atoms: _381  and  _383
REMARK  164  A    between atoms: _386  and  _388
REMARK  165  A    between atoms: _388  and  _389
REMARK  166  A    between atoms: _391  and  _393
REMARK  167  A    between atoms: _393  and  _394
REMARK  168  A    between atoms: _393  and  _396
REMARK  169  A    between atoms: _396  and  _397
REMARK  170  A    between atoms: _400  and  _402
REMARK  171  A    between atoms: _402  and  _403
REMARK  172  A    between atoms: _402  and  _405
REMARK  173  A    between atoms: _405  and  _406
REMARK  174  A    between atoms: _409  and  _411
REMARK  175  A    between atoms: _411  and  _412
REMARK  176  A    between atoms: _411  and  _414
REMARK  177  A    between atoms: _414  and  _415
REMARK  178  A    between atoms: _417  and  _419
REMARK  179  A    between atoms: _419  and  _420
REMARK  180  A    between atoms: _419  and  _422
REMARK  181  A    between atoms: _422  and  _423
REMARK  182  A    between atoms: _433  and  _435
REMARK  183  A    between atoms: _435  and  _436
REMARK  184  A    between atoms: _435  and  _438
REMARK  185  A    between atoms: _438  and  _439
REMARK  186  A    between atoms: _439  and  _440
REMARK                            x       y       z     vdW  Elec       q    Type
REMARK                         _______ _______ _______ _____ _____    ______ ____
ROOT
ATOM      1  C   SER A   2     -18.915 -24.922 -32.747  0.00  0.00    +0.243 C 
ATOM      2  N   TRP A   3     -19.375 -24.498 -31.570  0.00  0.00    -0.298 N 
ATOM      3  H   TRP A   3     -18.880 -23.716 -31.095  0.00  0.00    +0.150 HD
ATOM      4  O   SER A   2     -19.447 -25.823 -33.396  0.00  0.00    -0.273 OA
ENDROOT
BRANCH   1   5
ATOM      5  CA  SER A   2     -17.674 -24.198 -33.287  0.00  0.00    +0.178 C 
BRANCH   5   7
ATOM      6  C   ASP A   1     -16.761 -22.101 -32.451  0.00  0.00    +0.239 C 
ATOM      7  N   SER A   2     -16.987 -23.400 -32.271  0.00  0.00    -0.295 N 
ATOM      8  H   SER A   2     -16.670 -23.856 -31.392  0.00  0.00    +0.150 HD
ATOM      9  O   ASP A   1     -17.150 -21.486 -33.451  0.00  0.00    -0.274 OA
BRANCH   6  10
ATOM     10  CA  ASP A   1     -15.965 -21.375 -31.363  0.00  0.00    +0.156 C 
BRANCH  10  11
ATOM     11  N   ASP A   1     -15.884 -19.972 -31.752  0.00  0.00    -0.238 NA
ATOM     12  H   ASP A   1     -16.707 -19.533 -32.211  0.00  0.00    +0.142 HD
ENDBRANCH  10  11
BRANCH  10  13
ATOM     13  CB  ASP A   1     -16.539 -21.559 -29.944  0.00  0.00    +0.140 C 
BRANCH  13  14
ATOM     14  CG  ASP A   1     -17.970 -21.081 -29.815  0.00  0.00    +0.367 C 
ATOM     15  OD2 ASP A   1     -18.187 -19.983 -29.263  0.00  0.00    -0.246 OA
ATOM     16  OD1 ASP A   1     -18.884 -21.814 -30.247  0.00  0.00    -0.246 OA
ENDBRANCH  13  14
ENDBRANCH  10  13
ENDBRANCH   6  10
ENDBRANCH   5   7
BRANCH   5  17
ATOM     17  CB  SER A   2     -16.689 -25.172 -33.944  0.00  0.00    +0.166 C 
BRANCH  17  18
ATOM     18  OG  SER A   2     -15.603 -24.465 -34.533  0.00  0.00    -0.380 OA
ATOM     19  H   SER A   2     -15.950 -23.845 -35.222  0.00  0.00    +0.211 HD
ENDBRANCH  17  18
ENDBRANCH   5  17
ENDBRANCH   1   5
BRANCH   2  20
ATOM     20  CA  TRP A   3     -20.550 -25.087 -30.914  0.00  0.00    +0.141 C 
BRANCH  20  21
ATOM     21  C   TRP A   3     -21.690 -24.084 -30.629  0.00  0.00    +0.227 C 
ATOM     22  O   TRP A   3     -22.680 -24.416 -29.978  0.00  0.00    -0.286 OA
ENDBRANCH  20  21
BRANCH  20  23
ATOM     23  CB  TRP A   3     -20.137 -25.845 -29.641  0.00  0.00    +0.056 C 
BRANCH  23  24
ATOM     24  CG  TRP A   3     -19.142 -25.126 -28.754  0.00  0.00    -0.002 A 
ATOM     25  CD1 TRP A   3     -19.421 -24.364 -27.650  0.00  0.00    +0.068 A 
ATOM     26  NE1 TRP A   3     -18.258 -23.885 -27.095  0.00  0.00    -0.352 N 
ATOM     27  HE1 TRP A   3     -18.195 -23.279 -26.252  0.00  0.00    +0.166 HD
ATOM     28  CE2 TRP A   3     -17.196 -24.336 -27.834  0.00  0.00    +0.056 A 
ATOM     29  CZ2 TRP A   3     -15.822 -24.120 -27.665  0.00  0.00    +0.017 A 
ATOM     30  CH2 TRP A   3     -14.972 -24.702 -28.576  0.00  0.00    +0.001 A 
ATOM     31  CZ3 TRP A   3     -15.458 -25.493 -29.637  0.00  0.00    +0.000 A 
ATOM     32  CE3 TRP A   3     -16.825 -25.708 -29.805  0.00  0.00    +0.001 A 
ATOM     33  CD2 TRP A   3     -17.717 -25.123 -28.892  0.00  0.00    +0.013 A 
ENDBRANCH  23  24
ENDBRANCH  20  23
ENDBRANCH   2  20
TORSDOF 12
REMARK  Name = ../refined-set-2016/3t2q/3t2q_pocket.pdb
REMARK  186 active torsions:
REMARK  status: ('A' for Active; 'I' for Inactive)
REMARK    1  A    between atoms: _1  and  _3
REMARK    2  A    between atoms: _3  and  _4
REMARK    3  A    between atoms: _3  and  _6
REMARK    4  A    between atoms: _6  and  _7
REMARK    5  A    between atoms: _12  and  _13
REMARK    6  A    between atoms: _15  and  _17
REMARK    7  A    between atoms: _17  and  _18
REMARK    8  A    between atoms: _17  and  _20
REMARK    9  A    between atoms: _20  and  _21
REMARK   10  A    between atoms: _24  and  _26
REMARK   11  A    between atoms: _26  and  _27
REMARK   12  A    between atoms: _26  and  _29
REMARK   13  A    between atoms: _29  and  _30
REMARK   14  A    between atoms: _35  and  _37
REMARK   15  A    between atoms: _37  and  _38
REMARK   16  A    between atoms: _37  and  _40
REMARK   17  A    between atoms: _43  and  _45
REMARK   18  A    between atoms: _45  and  _46
REMARK   19  A    between atoms: _45  and  _48
REMARK   20  A    between atoms: _48  and  _49
REMARK   21  A    between atoms: _52  and  _54
REMARK   22  A    between atoms: _54  and  _55
REMARK   23  A    between atoms: _54  and  _57
REMARK   24  A    between atoms: _57  and  _58
REMARK   25  A    between atoms: _58  and  _59
REMARK   26  A    between atoms: _64  and  _66
REMARK   27  A    between atoms: _66  and  _67
REMARK   28  A    between atoms: _66  and  _69
REMARK   29  A    between atoms: _69  and  _70
REMARK   30  A    between atoms: _73  and  _75
REMARK   31  A    between atoms: _75  and  _76
REMARK   32  A    between atoms: _75  and  _78
REMARK   33  A    between atoms: _78  and  _79
REMARK   34  A    between atoms: _79  and  _80
REMARK   35  A    between atoms: _82  and  _84
REMARK   36  A    between atoms: _84  and  _85
REMARK   37  A    between atoms: _84  and  _87
REMARK   38  A    between atoms: _87  and  _88
REMARK   39  A    between atoms: _88  and  _89
REMARK   40  A    between atoms: _89  and  _90
REMARK   41  A    between atoms: _99  and  _101
REMARK   42  A    between atoms: _101  and  _102
REMARK   43  A    between atoms: _101  and  _104
REMARK   44  A    between atoms: _104  and  _105
REMARK   45  A    between atoms: _110  and  _112
REMARK   46  A    between atoms: _112  and  _113
REMARK   47  A    between atoms: _112  and  _115
REMARK   48  A    between atoms: _115  and  _116
REMARK   49  A    between atoms: _121  and  _123
REMARK   50  A    between atoms: _123  and  _124
REMARK   51  A    between atoms: _123  and  _126
REMARK   52  A    between atoms: _126  and  _127
REMARK   53  A    between atoms: _127  and  _128
REMARK   54  A    between atoms: _128  and  _129
REMARK   55  A    between atoms: _138  and  _140
REMARK   56  A    between atoms: _140  and  _141
REMARK   57  A    between atoms: _140  and  _143
REMARK   58  A    between atoms: _143  and  _144
REMARK   59  A    between atoms: _146  and  _148
REMARK   60  A    between atoms: _148  and  _149
REMARK   61  A    between atoms: _148  and  _151
REMARK   62  A    between atoms: _151  and  _152
REMARK   63  A    between atoms: _157  and  _159
REMARK   64  A    between atoms: _159  and  _160
REMARK   65  A    between atoms: _159  and  _162
REMARK   66  A    between atoms: _162  and  _163
REMARK   67  A    between atoms: _163  and  _164
REMARK   68  A    between atoms: _167  and  _169
REMARK   69  A    between atoms: _169  and  _170
REMARK   70  A    between atoms: _169  and  _172
REMARK   71  A    between atoms: _172  and  _173
REMARK   72  A    between atoms: _173  and  _174
REMARK   73  A    between atoms: _177  and  _179
REMARK   74  A    between atoms: _179  and  _180
REMARK   75  A    between atoms: _179  and  _182
REMARK   76  A    between atoms: _182  and  _183
REMARK   77  A    between atoms: _184  and  MG_443
REMARK   78  A    between atoms: _188  and  _190
REMARK   79  A    between atoms: _190  and  _191
REMARK   80  A    between atoms: _190  and  _193
REMARK   81  A    between atoms: _193  and  _194
REMARK   82  A    between atoms: _199  and  _201
REMARK   83  A    between atoms: _201  and  _202
REMARK   84  A    between atoms: _201  and  _204
REMARK   85  A    between atoms: _204  and  _205
REMARK   86  A    between atoms: _205  and  _206
REMARK   87  A    between atoms: _209  and  _211
REMARK   88  A    between atoms: _211  and  _212
REMARK   89  A    between atoms: _211  and  _214
REMARK   90  A    between atoms: _214  and  _215
REMARK   91  A    between atoms: _215  and  _216
REMARK   92  A    between atoms: _219  and  _221
REMARK   93  A    between atoms: _221  and  _222
REMARK   94  A    between atoms: _221  and  _224
REMARK   95  A    between atoms: _224  and  _225
REMARK   96  A    between atoms: _225  and  _226
REMARK   97  A    between atoms: _228  and  _230
REMARK   98  A    between atoms: _230  and  _231
REMARK   99  A    between atoms: _230  and  _233
REMARK  100  A    between atoms: _233  and  _234
REMARK  101  A    between atoms: _239  and  _240
REMARK  102  A    between atoms: _242  and  _244
REMARK  103  A    between atoms: _244  and  _245
REMARK  104  A    between atoms: _244  and  _247
REMARK  105  A    between atoms: _247  and  _248
REMARK  106  A    between atoms: _248  and  _249
REMARK  107  A    between atoms: _249  and  _250
REMARK  108  A    between atoms: _250  and  _251
REMARK  109  A    between atoms: _255  and  _257
REMARK  110  A    between atoms: _257  and  _258
REMARK  111  A    between atoms: _257  and  _260
REMARK  112  A    between atoms: _262  and  _264
REMARK  113  A    between atoms: _264  and  _265
REMARK  114  A    between atoms: _264  and  _267
REMARK  115  A    between atoms: _267  and  _268
REMARK  116  A    between atoms: _268  and  _269
REMARK  117  A    between atoms: _272  and  _274
REMARK  118  A    between atoms: _274  and  _275
REMARK  119  A    between atoms: _274  and  _277
REMARK  120  A    between atoms: _277  and  _278
REMARK  121  A    between atoms: _283  and  _285
REMARK  122  A    between atoms: _285  and  _286
REMARK  123  A    between atoms: _289  and  _291
REMARK  124  A    between atoms: _291  and  _292
REMARK  125  A    between atoms: _291  and  _294
REMARK  126  A    between atoms: _294  and  _295
REMARK  127  A    between atoms: _295  and  _296
REMARK  128  A    between atoms: _298  and  _300
REMARK  129  A    between atoms: _300  and  _301
REMARK  130  A    between atoms: _300  and  _303
REMARK  131  A    between atoms: _303  and  _304
REMARK  132  A    between atoms: _314  and  _316
REMARK  133  A    between atoms: _316  and  _317
REMARK  134  A    between atoms: _316  and  _319
REMARK  135  A    between atoms: _319  and  _320
REMARK  136  A    between atoms: _323  and  _325
REMARK  137  A    between atoms: _325  and  _326
REMARK  138  A    between atoms: _325  and  _328
REMARK  139  A    between atoms: _328  and  _329
REMARK  140  A    between atoms: _329  and  _330
REMARK  141  A    between atoms: _335  and  _337
REMARK  142  A    between atoms: _337  and  _338
REMARK  143  A    between atoms: _337  and  _340
REMARK  144  A    between atoms: _340  and  _341
REMARK  145  A    between atoms: _341  and  _342
REMARK  146  A    between atoms: _347  and  _349
REMARK  147  A    between atoms: _349  and  _350
REMARK  148  A    between atoms: _349  and  _352
REMARK  149  A    between atoms: _352  and  _353
REMARK  150  A    between atoms: _359  and  _361
REMARK  151  A    between atoms: _361  and  _362
REMARK  152  A    between atoms: _361  and  _364
REMARK  153  A    between atoms: _366  and  _368
REMARK  154  A    between atoms: _368  and  _369
REMARK  155  A    between atoms: _368  and  _371
REMARK  156  A    between atoms: _371  and  _372
REMARK  157  A    between atoms: _372  and  _373
REMARK  158  A    between atoms: _375  and  _377
REMARK  159  A    between atoms: _377  and  _378
REMARK  160  A    between atoms: _377  and  _380
REMARK  161  A    between atoms: _380  and  _381
REMARK  162  A    between atoms: _381  and  _382
REMARK  163  A    between atoms: _381  and  _383
REMARK  164  A    between atoms: _386  and  _388
REMARK  165  A    between atoms: _388  and  _389
REMARK  166  A    between atoms: _391  and  _393
REMARK  167  A    between atoms: _393  and  _394
REMARK  168  A    between atoms: _393  and  _396
REMARK  169  A    between atoms: _396  and  _397
REMARK  170  A    between atoms: _400  and  _402
REMARK  171  A    between atoms: _402  and  _403
REMARK  172  A    between atoms: _402  and  _405
REMARK  173  A    between atoms: _405  and  _406
REMARK  174  A    between atoms: _409  and  _411
REMARK  175  A    between atoms: _411  and  _412
REMARK  176  A    between atoms: _411  and  _414
REMARK  177  A    between atoms: _414  and  _415
REMARK  178  A    between atoms: _417  and  _419
REMARK  179  A    between atoms: _419  and  _420
REMARK  180  A    between atoms: _419  and  _422
REMARK  181  A    between atoms: _422  and  _423
REMARK  182  A    between atoms: _433  and  _435
REMARK  183  A    between atoms: _435  and  _436
REMARK  184  A    between atoms: _435  and  _438
REMARK  185  A    between atoms: _438  and  _439
REMARK  186  A    between atoms: _439  and  _440
REMARK                            x       y       z     vdW  Elec       q    Type
REMARK                         _______ _______ _______ _____ _____    ______ ____
ROOT
ATOM      1  CA  GLU A   1     -19.282 -25.343 -17.287  0.00  0.00    +0.134 C 
ENDROOT
BRANCH   1   2
ATOM      2  N   GLU A   1     -18.638 -24.954 -16.024  0.00  0.00    -0.239 NA
ATOM      3  H   GLU A   1     -17.606 -24.823 -16.020  0.00  0.00    +0.142 HD
ENDBRANCH   1   2
BRANCH   1   4
ATOM      4  C   GLU A   1     -20.118 -26.632 -17.220  0.00  0.00    +0.224 C 
ATOM      5  O   GLU A   1     -21.024 -26.830 -18.030  0.00  0.00    -0.287 OA
ENDBRANCH   1   4
BRANCH   1   6
ATOM      6  CB  GLU A   1     -18.235 -25.443 -18.407  0.00  0.00    +0.037 C 
BRANCH   6   7
ATOM      7  CG  GLU A   1     -17.584 -24.097 -18.807  0.00  0.00    +0.116 C 
BRANCH   7   8
ATOM      8  CD  GLU A   1     -16.359 -23.680 -17.948  0.00  0.00    +0.365 C 
ATOM      9  OE2 GLU A   1     -16.208 -24.119 -16.787  0.00  0.00    -0.246 OA
ATOM     10  OE1 GLU A   1     -15.535 -22.891 -18.454  0.00  0.00    -0.246 OA
ENDBRANCH   7   8
ENDBRANCH   6   7
ENDBRANCH   1   6
TORSDOF 5
REMARK  Name = ../refined-set-2016/3t2q/3t2q_pocket.pdb
REMARK  186 active torsions:
REMARK  status: ('A' for Active; 'I' for Inactive)
REMARK    1  A    between atoms: _1  and  _3
REMARK    2  A    between atoms: _3  and  _4
REMARK    3  A    between atoms: _3  and  _6
REMARK    4  A    between atoms: _6  and  _7
REMARK    5  A    between atoms: _12  and  _13
REMARK    6  A    between atoms: _15  and  _17
REMARK    7  A    between atoms: _17  and  _18
REMARK    8  A    between atoms: _17  and  _20
REMARK    9  A    between atoms: _20  and  _21
REMARK   10  A    between atoms: _24  and  _26
REMARK   11  A    between atoms: _26  and  _27
REMARK   12  A    between atoms: _26  and  _29
REMARK   13  A    between atoms: _29  and  _30
REMARK   14  A    between atoms: _35  and  _37
REMARK   15  A    between atoms: _37  and  _38
REMARK   16  A    between atoms: _37  and  _40
REMARK   17  A    between atoms: _43  and  _45
REMARK   18  A    between atoms: _45  and  _46
REMARK   19  A    between atoms: _45  and  _48
REMARK   20  A    between atoms: _48  and  _49
REMARK   21  A    between atoms: _52  and  _54
REMARK   22  A    between atoms: _54  and  _55
REMARK   23  A    between atoms: _54  and  _57
REMARK   24  A    between atoms: _57  and  _58
REMARK   25  A    between atoms: _58  and  _59
REMARK   26  A    between atoms: _64  and  _66
REMARK   27  A    between atoms: _66  and  _67
REMARK   28  A    between atoms: _66  and  _69
REMARK   29  A    between atoms: _69  and  _70
REMARK   30  A    between atoms: _73  and  _75
REMARK   31  A    between atoms: _75  and  _76
REMARK   32  A    between atoms: _75  and  _78
REMARK   33  A    between atoms: _78  and  _79
REMARK   34  A    between atoms: _79  and  _80
REMARK   35  A    between atoms: _82  and  _84
REMARK   36  A    between atoms: _84  and  _85
REMARK   37  A    between atoms: _84  and  _87
REMARK   38  A    between atoms: _87  and  _88
REMARK   39  A    between atoms: _88  and  _89
REMARK   40  A    between atoms: _89  and  _90
REMARK   41  A    between atoms: _99  and  _101
REMARK   42  A    between atoms: _101  and  _102
REMARK   43  A    between atoms: _101  and  _104
REMARK   44  A    between atoms: _104  and  _105
REMARK   45  A    between atoms: _110  and  _112
REMARK   46  A    between atoms: _112  and  _113
REMARK   47  A    between atoms: _112  and  _115
REMARK   48  A    between atoms: _115  and  _116
REMARK   49  A    between atoms: _121  and  _123
REMARK   50  A    between atoms: _123  and  _124
REMARK   51  A    between atoms: _123  and  _126
REMARK   52  A    between atoms: _126  and  _127
REMARK   53  A    between atoms: _127  and  _128
REMARK   54  A    between atoms: _128  and  _129
REMARK   55  A    between atoms: _138  and  _140
REMARK   56  A    between atoms: _140  and  _141
REMARK   57  A    between atoms: _140  and  _143
REMARK   58  A    between atoms: _143  and  _144
REMARK   59  A    between atoms: _146  and  _148
REMARK   60  A    between atoms: _148  and  _149
REMARK   61  A    between atoms: _148  and  _151
REMARK   62  A    between atoms: _151  and  _152
REMARK   63  A    between atoms: _157  and  _159
REMARK   64  A    between atoms: _159  and  _160
REMARK   65  A    between atoms: _159  and  _162
REMARK   66  A    between atoms: _162  and  _163
REMARK   67  A    between atoms: _163  and  _164
REMARK   68  A    between atoms: _167  and  _169
REMARK   69  A    between atoms: _169  and  _170
REMARK   70  A    between atoms: _169  and  _172
REMARK   71  A    between atoms: _172  and  _173
REMARK   72  A    between atoms: _173  and  _174
REMARK   73  A    between atoms: _177  and  _179
REMARK   74  A    between atoms: _179  and  _180
REMARK   75  A    between atoms: _179  and  _182
REMARK   76  A    between atoms: _182  and  _183
REMARK   77  A    between atoms: _184  and  MG_443
REMARK   78  A    between atoms: _188  and  _190
REMARK   79  A    between atoms: _190  and  _191
REMARK   80  A    between atoms: _190  and  _193
REMARK   81  A    between atoms: _193  and  _194
REMARK   82  A    between atoms: _199  and  _201
REMARK   83  A    between atoms: _201  and  _202
REMARK   84  A    between atoms: _201  and  _204
REMARK   85  A    between atoms: _204  and  _205
REMARK   86  A    between atoms: _205  and  _206
REMARK   87  A    between atoms: _209  and  _211
REMARK   88  A    between atoms: _211  and  _212
REMARK   89  A    between atoms: _211  and  _214
REMARK   90  A    between atoms: _214  and  _215
REMARK   91  A    between atoms: _215  and  _216
REMARK   92  A    between atoms: _219  and  _221
REMARK   93  A    between atoms: _221  and  _222
REMARK   94  A    between atoms: _221  and  _224
REMARK   95  A    between atoms: _224  and  _225
REMARK   96  A    between atoms: _225  and  _226
REMARK   97  A    between atoms: _228  and  _230
REMARK   98  A    between atoms: _230  and  _231
REMARK   99  A    between atoms: _230  and  _233
REMARK  100  A    between atoms: _233  and  _234
REMARK  101  A    between atoms: _239  and  _240
REMARK  102  A    between atoms: _242  and  _244
REMARK  103  A    between atoms: _244  and  _245
REMARK  104  A    between atoms: _244  and  _247
REMARK  105  A    between atoms: _247  and  _248
REMARK  106  A    between atoms: _248  and  _249
REMARK  107  A    between atoms: _249  and  _250
REMARK  108  A    between atoms: _250  and  _251
REMARK  109  A    between atoms: _255  and  _257
REMARK  110  A    between atoms: _257  and  _258
REMARK  111  A    between atoms: _257  and  _260
REMARK  112  A    between atoms: _262  and  _264
REMARK  113  A    between atoms: _264  and  _265
REMARK  114  A    between atoms: _264  and  _267
REMARK  115  A    between atoms: _267  and  _268
REMARK  116  A    between atoms: _268  and  _269
REMARK  117  A    between atoms: _272  and  _274
REMARK  118  A    between atoms: _274  and  _275
REMARK  119  A    between atoms: _274  and  _277
REMARK  120  A    between atoms: _277  and  _278
REMARK  121  A    between atoms: _283  and  _285
REMARK  122  A    between atoms: _285  and  _286
REMARK  123  A    between atoms: _289  and  _291
REMARK  124  A    between atoms: _291  and  _292
REMARK  125  A    between atoms: _291  and  _294
REMARK  126  A    between atoms: _294  and  _295
REMARK  127  A    between atoms: _295  and  _296
REMARK  128  A    between atoms: _298  and  _300
REMARK  129  A    between atoms: _300  and  _301
REMARK  130  A    between atoms: _300  and  _303
REMARK  131  A    between atoms: _303  and  _304
REMARK  132  A    between atoms: _314  and  _316
REMARK  133  A    between atoms: _316  and  _317
REMARK  134  A    between atoms: _316  and  _319
REMARK  135  A    between atoms: _319  and  _320
REMARK  136  A    between atoms: _323  and  _325
REMARK  137  A    between atoms: _325  and  _326
REMARK  138  A    between atoms: _325  and  _328
REMARK  139  A    between atoms: _328  and  _329
REMARK  140  A    between atoms: _329  and  _330
REMARK  141  A    between atoms: _335  and  _337
REMARK  142  A    between atoms: _337  and  _338
REMARK  143  A    between atoms: _337  and  _340
REMARK  144  A    between atoms: _340  and  _341
REMARK  145  A    between atoms: _341  and  _342
REMARK  146  A    between atoms: _347  and  _349
REMARK  147  A    between atoms: _349  and  _350
REMARK  148  A    between atoms: _349  and  _352
REMARK  149  A    between atoms: _352  and  _353
REMARK  150  A    between atoms: _359  and  _361
REMARK  151  A    between atoms: _361  and  _362
REMARK  152  A    between atoms: _361  and  _364
REMARK  153  A    between atoms: _366  and  _368
REMARK  154  A    between atoms: _368  and  _369
REMARK  155  A    between atoms: _368  and  _371
REMARK  156  A    between atoms: _371  and  _372
REMARK  157  A    between atoms: _372  and  _373
REMARK  158  A    between atoms: _375  and  _377
REMARK  159  A    between atoms: _377  and  _378
REMARK  160  A    between atoms: _377  and  _380
REMARK  161  A    between atoms: _380  and  _381
REMARK  162  A    between atoms: _381  and  _382
REMARK  163  A    between atoms: _381  and  _383
REMARK  164  A    between atoms: _386  and  _388
REMARK  165  A    between atoms: _388  and  _389
REMARK  166  A    between atoms: _391  and  _393
REMARK  167  A    between atoms: _393  and  _394
REMARK  168  A    between atoms: _393  and  _396
REMARK  169  A    between atoms: _396  and  _397
REMARK  170  A    between atoms: _400  and  _402
REMARK  171  A    between atoms: _402  and  _403
REMARK  172  A    between atoms: _402  and  _405
REMARK  173  A    between atoms: _405  and  _406
REMARK  174  A    between atoms: _409  and  _411
REMARK  175  A    between atoms: _411  and  _412
REMARK  176  A    between atoms: _411  and  _414
REMARK  177  A    between atoms: _414  and  _415
REMARK  178  A    between atoms: _417  and  _419
REMARK  179  A    between atoms: _419  and  _420
REMARK  180  A    between atoms: _419  and  _422
REMARK  181  A    between atoms: _422  and  _423
REMARK  182  A    between atoms: _433  and  _435
REMARK  183  A    between atoms: _435  and  _436
REMARK  184  A    between atoms: _435  and  _438
REMARK  185  A    between atoms: _438  and  _439
REMARK  186  A    between atoms: _439  and  _440
REMARK                            x       y       z     vdW  Elec       q    Type
REMARK                         _______ _______ _______ _____ _____    ______ ____
ROOT
ATOM      1  O   HOH     1      -5.743 -24.688 -18.530  0.00  0.00    +0.000 OA
ENDROOT
TORSDOF 0
REMARK  Name = ../refined-set-2016/3t2q/3t2q_pocket.pdb
REMARK  186 active torsions:
REMARK  status: ('A' for Active; 'I' for Inactive)
REMARK    1  A    between atoms: _1  and  _3
REMARK    2  A    between atoms: _3  and  _4
REMARK    3  A    between atoms: _3  and  _6
REMARK    4  A    between atoms: _6  and  _7
REMARK    5  A    between atoms: _12  and  _13
REMARK    6  A    between atoms: _15  and  _17
REMARK    7  A    between atoms: _17  and  _18
REMARK    8  A    between atoms: _17  and  _20
REMARK    9  A    between atoms: _20  and  _21
REMARK   10  A    between atoms: _24  and  _26
REMARK   11  A    between atoms: _26  and  _27
REMARK   12  A    between atoms: _26  and  _29
REMARK   13  A    between atoms: _29  and  _30
REMARK   14  A    between atoms: _35  and  _37
REMARK   15  A    between atoms: _37  and  _38
REMARK   16  A    between atoms: _37  and  _40
REMARK   17  A    between atoms: _43  and  _45
REMARK   18  A    between atoms: _45  and  _46
REMARK   19  A    between atoms: _45  and  _48
REMARK   20  A    between atoms: _48  and  _49
REMARK   21  A    between atoms: _52  and  _54
REMARK   22  A    between atoms: _54  and  _55
REMARK   23  A    between atoms: _54  and  _57
REMARK   24  A    between atoms: _57  and  _58
REMARK   25  A    between atoms: _58  and  _59
REMARK   26  A    between atoms: _64  and  _66
REMARK   27  A    between atoms: _66  and  _67
REMARK   28  A    between atoms: _66  and  _69
REMARK   29  A    between atoms: _69  and  _70
REMARK   30  A    between atoms: _73  and  _75
REMARK   31  A    between atoms: _75  and  _76
REMARK   32  A    between atoms: _75  and  _78
REMARK   33  A    between atoms: _78  and  _79
REMARK   34  A    between atoms: _79  and  _80
REMARK   35  A    between atoms: _82  and  _84
REMARK   36  A    between atoms: _84  and  _85
REMARK   37  A    between atoms: _84  and  _87
REMARK   38  A    between atoms: _87  and  _88
REMARK   39  A    between atoms: _88  and  _89
REMARK   40  A    between atoms: _89  and  _90
REMARK   41  A    between atoms: _99  and  _101
REMARK   42  A    between atoms: _101  and  _102
REMARK   43  A    between atoms: _101  and  _104
REMARK   44  A    between atoms: _104  and  _105
REMARK   45  A    between atoms: _110  and  _112
REMARK   46  A    between atoms: _112  and  _113
REMARK   47  A    between atoms: _112  and  _115
REMARK   48  A    between atoms: _115  and  _116
REMARK   49  A    between atoms: _121  and  _123
REMARK   50  A    between atoms: _123  and  _124
REMARK   51  A    between atoms: _123  and  _126
REMARK   52  A    between atoms: _126  and  _127
REMARK   53  A    between atoms: _127  and  _128
REMARK   54  A    between atoms: _128  and  _129
REMARK   55  A    between atoms: _138  and  _140
REMARK   56  A    between atoms: _140  and  _141
REMARK   57  A    between atoms: _140  and  _143
REMARK   58  A    between atoms: _143  and  _144
REMARK   59  A    between atoms: _146  and  _148
REMARK   60  A    between atoms: _148  and  _149
REMARK   61  A    between atoms: _148  and  _151
REMARK   62  A    between atoms: _151  and  _152
REMARK   63  A    between atoms: _157  and  _159
REMARK   64  A    between atoms: _159  and  _160
REMARK   65  A    between atoms: _159  and  _162
REMARK   66  A    between atoms: _162  and  _163
REMARK   67  A    between atoms: _163  and  _164
REMARK   68  A    between atoms: _167  and  _169
REMARK   69  A    between atoms: _169  and  _170
REMARK   70  A    between atoms: _169  and  _172
REMARK   71  A    between atoms: _172  and  _173
REMARK   72  A    between atoms: _173  and  _174
REMARK   73  A    between atoms: _177  and  _179
REMARK   74  A    between atoms: _179  and  _180
REMARK   75  A    between atoms: _179  and  _182
REMARK   76  A    between atoms: _182  and  _183
REMARK   77  A    between atoms: _184  and  MG_443
REMARK   78  A    between atoms: _188  and  _190
REMARK   79  A    between atoms: _190  and  _191
REMARK   80  A    between atoms: _190  and  _193
REMARK   81  A    between atoms: _193  and  _194
REMARK   82  A    between atoms: _199  and  _201
REMARK   83  A    between atoms: _201  and  _202
REMARK   84  A    between atoms: _201  and  _204
REMARK   85  A    between atoms: _204  and  _205
REMARK   86  A    between atoms: _205  and  _206
REMARK   87  A    between atoms: _209  and  _211
REMARK   88  A    between atoms: _211  and  _212
REMARK   89  A    between atoms: _211  and  _214
REMARK   90  A    between atoms: _214  and  _215
REMARK   91  A    between atoms: _215  and  _216
REMARK   92  A    between atoms: _219  and  _221
REMARK   93  A    between atoms: _221  and  _222
REMARK   94  A    between atoms: _221  and  _224
REMARK   95  A    between atoms: _224  and  _225
REMARK   96  A    between atoms: _225  and  _226
REMARK   97  A    between atoms: _228  and  _230
REMARK   98  A    between atoms: _230  and  _231
REMARK   99  A    between atoms: _230  and  _233
REMARK  100  A    between atoms: _233  and  _234
REMARK  101  A    between atoms: _239  and  _240
REMARK  102  A    between atoms: _242  and  _244
REMARK  103  A    between atoms: _244  and  _245
REMARK  104  A    between atoms: _244  and  _247
REMARK  105  A    between atoms: _247  and  _248
REMARK  106  A    between atoms: _248  and  _249
REMARK  107  A    between atoms: _249  and  _250
REMARK  108  A    between atoms: _250  and  _251
REMARK  109  A    between atoms: _255  and  _257
REMARK  110  A    between atoms: _257  and  _258
REMARK  111  A    between atoms: _257  and  _260
REMARK  112  A    between atoms: _262  and  _264
REMARK  113  A    between atoms: _264  and  _265
REMARK  114  A    between atoms: _264  and  _267
REMARK  115  A    between atoms: _267  and  _268
REMARK  116  A    between atoms: _268  and  _269
REMARK  117  A    between atoms: _272  and  _274
REMARK  118  A    between atoms: _274  and  _275
REMARK  119  A    between atoms: _274  and  _277
REMARK  120  A    between atoms: _277  and  _278
REMARK  121  A    between atoms: _283  and  _285
REMARK  122  A    between atoms: _285  and  _286
REMARK  123  A    between atoms: _289  and  _291
REMARK  124  A    between atoms: _291  and  _292
REMARK  125  A    between atoms: _291  and  _294
REMARK  126  A    between atoms: _294  and  _295
REMARK  127  A    between atoms: _295  and  _296
REMARK  128  A    between atoms: _298  and  _300
REMARK  129  A    between atoms: _300  and  _301
REMARK  130  A    between atoms: _300  and  _303
REMARK  131  A    between atoms: _303  and  _304
REMARK  132  A    between atoms: _314  and  _316
REMARK  133  A    between atoms: _316  and  _317
REMARK  134  A    between atoms: _316  and  _319
REMARK  135  A    between atoms: _319  and  _320
REMARK  136  A    between atoms: _323  and  _325
REMARK  137  A    between atoms: _325  and  _326
REMARK  138  A    between atoms: _325  and  _328
REMARK  139  A    between atoms: _328  and  _329
REMARK  140  A    between atoms: _329  and  _330
REMARK  141  A    between atoms: _335  and  _337
REMARK  142  A    between atoms: _337  and  _338
REMARK  143  A    between atoms: _337  and  _340
REMARK  144  A    between atoms: _340  and  _341
REMARK  145  A    between atoms: _341  and  _342
REMARK  146  A    between atoms: _347  and  _349
REMARK  147  A    between atoms: _349  and  _350
REMARK  148  A    between atoms: _349  and  _352
REMARK  149  A    between atoms: _352  and  _353
REMARK  150  A    between atoms: _359  and  _361
REMARK  151  A    between atoms: _361  and  _362
REMARK  152  A    between atoms: _361  and  _364
REMARK  153  A    between atoms: _366  and  _368
REMARK  154  A    between atoms: _368  and  _369
REMARK  155  A    between atoms: _368  and  _371
REMARK  156  A    between atoms: _371  and  _372
REMARK  157  A    between atoms: _372  and  _373
REMARK  158  A    between atoms: _375  and  _377
REMARK  159  A    between atoms: _377  and  _378
REMARK  160  A    between atoms: _377  and  _380
REMARK  161  A    between atoms: _380  and  _381
REMARK  162  A    between atoms: _381  and  _382
REMARK  163  A    between atoms: _381  and  _383
REMARK  164  A    between atoms: _386  and  _388
REMARK  165  A    between atoms: _388  and  _389
REMARK  166  A    between atoms: _391  and  _393
REMARK  167  A    between atoms: _393  and  _394
REMARK  168  A    between atoms: _393  and  _396
REMARK  169  A    between atoms: _396  and  _397
REMARK  170  A    between atoms: _400  and  _402
REMARK  171  A    between atoms: _402  and  _403
REMARK  172  A    between atoms: _402  and  _405
REMARK  173  A    between atoms: _405  and  _406
REMARK  174  A    between atoms: _409  and  _411
REMARK  175  A    between atoms: _411  and  _412
REMARK  176  A    between atoms: _411  and  _414
REMARK  177  A    between atoms: _414  and  _415
REMARK  178  A    between atoms: _417  and  _419
REMARK  179  A    between atoms: _419  and  _420
REMARK  180  A    between atoms: _419  and  _422
REMARK  181  A    between atoms: _422  and  _423
REMARK  182  A    between atoms: _433  and  _435
REMARK  183  A    between atoms: _435  and  _436
REMARK  184  A    between atoms: _435  and  _438
REMARK  185  A    between atoms: _438  and  _439
REMARK  186  A    between atoms: _439  and  _440
REMARK                            x       y       z     vdW  Elec       q    Type
REMARK                         _______ _______ _______ _____ _____    ______ ____
ROOT
ATOM      1  O   HOH     1     -15.878 -29.027 -26.093  0.00  0.00    +0.000 OA
ENDROOT
TORSDOF 0
REMARK  Name = ../refined-set-2016/3t2q/3t2q_pocket.pdb
REMARK  186 active torsions:
REMARK  status: ('A' for Active; 'I' for Inactive)
REMARK    1  A    between atoms: _1  and  _3
REMARK    2  A    between atoms: _3  and  _4
REMARK    3  A    between atoms: _3  and  _6
REMARK    4  A    between atoms: _6  and  _7
REMARK    5  A    between atoms: _12  and  _13
REMARK    6  A    between atoms: _15  and  _17
REMARK    7  A    between atoms: _17  and  _18
REMARK    8  A    between atoms: _17  and  _20
REMARK    9  A    between atoms: _20  and  _21
REMARK   10  A    between atoms: _24  and  _26
REMARK   11  A    between atoms: _26  and  _27
REMARK   12  A    between atoms: _26  and  _29
REMARK   13  A    between atoms: _29  and  _30
REMARK   14  A    between atoms: _35  and  _37
REMARK   15  A    between atoms: _37  and  _38
REMARK   16  A    between atoms: _37  and  _40
REMARK   17  A    between atoms: _43  and  _45
REMARK   18  A    between atoms: _45  and  _46
REMARK   19  A    between atoms: _45  and  _48
REMARK   20  A    between atoms: _48  and  _49
REMARK   21  A    between atoms: _52  and  _54
REMARK   22  A    between atoms: _54  and  _55
REMARK   23  A    between atoms: _54  and  _57
REMARK   24  A    between atoms: _57  and  _58
REMARK   25  A    between atoms: _58  and  _59
REMARK   26  A    between atoms: _64  and  _66
REMARK   27  A    between atoms: _66  and  _67
REMARK   28  A    between atoms: _66  and  _69
REMARK   29  A    between atoms: _69  and  _70
REMARK   30  A    between atoms: _73  and  _75
REMARK   31  A    between atoms: _75  and  _76
REMARK   32  A    between atoms: _75  and  _78
REMARK   33  A    between atoms: _78  and  _79
REMARK   34  A    between atoms: _79  and  _80
REMARK   35  A    between atoms: _82  and  _84
REMARK   36  A    between atoms: _84  and  _85
REMARK   37  A    between atoms: _84  and  _87
REMARK   38  A    between atoms: _87  and  _88
REMARK   39  A    between atoms: _88  and  _89
REMARK   40  A    between atoms: _89  and  _90
REMARK   41  A    between atoms: _99  and  _101
REMARK   42  A    between atoms: _101  and  _102
REMARK   43  A    between atoms: _101  and  _104
REMARK   44  A    between atoms: _104  and  _105
REMARK   45  A    between atoms: _110  and  _112
REMARK   46  A    between atoms: _112  and  _113
REMARK   47  A    between atoms: _112  and  _115
REMARK   48  A    between atoms: _115  and  _116
REMARK   49  A    between atoms: _121  and  _123
REMARK   50  A    between atoms: _123  and  _124
REMARK   51  A    between atoms: _123  and  _126
REMARK   52  A    between atoms: _126  and  _127
REMARK   53  A    between atoms: _127  and  _128
REMARK   54  A    between atoms: _128  and  _129
REMARK   55  A    between atoms: _138  and  _140
REMARK   56  A    between atoms: _140  and  _141
REMARK   57  A    between atoms: _140  and  _143
REMARK   58  A    between atoms: _143  and  _144
REMARK   59  A    between atoms: _146  and  _148
REMARK   60  A    between atoms: _148  and  _149
REMARK   61  A    between atoms: _148  and  _151
REMARK   62  A    between atoms: _151  and  _152
REMARK   63  A    between atoms: _157  and  _159
REMARK   64  A    between atoms: _159  and  _160
REMARK   65  A    between atoms: _159  and  _162
REMARK   66  A    between atoms: _162  and  _163
REMARK   67  A    between atoms: _163  and  _164
REMARK   68  A    between atoms: _167  and  _169
REMARK   69  A    between atoms: _169  and  _170
REMARK   70  A    between atoms: _169  and  _172
REMARK   71  A    between atoms: _172  and  _173
REMARK   72  A    between atoms: _173  and  _174
REMARK   73  A    between atoms: _177  and  _179
REMARK   74  A    between atoms: _179  and  _180
REMARK   75  A    between atoms: _179  and  _182
REMARK   76  A    between atoms: _182  and  _183
REMARK   77  A    between atoms: _184  and  MG_443
REMARK   78  A    between atoms: _188  and  _190
REMARK   79  A    between atoms: _190  and  _191
REMARK   80  A    between atoms: _190  and  _193
REMARK   81  A    between atoms: _193  and  _194
REMARK   82  A    between atoms: _199  and  _201
REMARK   83  A    between atoms: _201  and  _202
REMARK   84  A    between atoms: _201  and  _204
REMARK   85  A    between atoms: _204  and  _205
REMARK   86  A    between atoms: _205  and  _206
REMARK   87  A    between atoms: _209  and  _211
REMARK   88  A    between atoms: _211  and  _212
REMARK   89  A    between atoms: _211  and  _214
REMARK   90  A    between atoms: _214  and  _215
REMARK   91  A    between atoms: _215  and  _216
REMARK   92  A    between atoms: _219  and  _221
REMARK   93  A    between atoms: _221  and  _222
REMARK   94  A    between atoms: _221  and  _224
REMARK   95  A    between atoms: _224  and  _225
REMARK   96  A    between atoms: _225  and  _226
REMARK   97  A    between atoms: _228  and  _230
REMARK   98  A    between atoms: _230  and  _231
REMARK   99  A    between atoms: _230  and  _233
REMARK  100  A    between atoms: _233  and  _234
REMARK  101  A    between atoms: _239  and  _240
REMARK  102  A    between atoms: _242  and  _244
REMARK  103  A    between atoms: _244  and  _245
REMARK  104  A    between atoms: _244  and  _247
REMARK  105  A    between atoms: _247  and  _248
REMARK  106  A    between atoms: _248  and  _249
REMARK  107  A    between atoms: _249  and  _250
REMARK  108  A    between atoms: _250  and  _251
REMARK  109  A    between atoms: _255  and  _257
REMARK  110  A    between atoms: _257  and  _258
REMARK  111  A    between atoms: _257  and  _260
REMARK  112  A    between atoms: _262  and  _264
REMARK  113  A    between atoms: _264  and  _265
REMARK  114  A    between atoms: _264  and  _267
REMARK  115  A    between atoms: _267  and  _268
REMARK  116  A    between atoms: _268  and  _269
REMARK  117  A    between atoms: _272  and  _274
REMARK  118  A    between atoms: _274  and  _275
REMARK  119  A    between atoms: _274  and  _277
REMARK  120  A    between atoms: _277  and  _278
REMARK  121  A    between atoms: _283  and  _285
REMARK  122  A    between atoms: _285  and  _286
REMARK  123  A    between atoms: _289  and  _291
REMARK  124  A    between atoms: _291  and  _292
REMARK  125  A    between atoms: _291  and  _294
REMARK  126  A    between atoms: _294  and  _295
REMARK  127  A    between atoms: _295  and  _296
REMARK  128  A    between atoms: _298  and  _300
REMARK  129  A    between atoms: _300  and  _301
REMARK  130  A    between atoms: _300  and  _303
REMARK  131  A    between atoms: _303  and  _304
REMARK  132  A    between atoms: _314  and  _316
REMARK  133  A    between atoms: _316  and  _317
REMARK  134  A    between atoms: _316  and  _319
REMARK  135  A    between atoms: _319  and  _320
REMARK  136  A    between atoms: _323  and  _325
REMARK  137  A    between atoms: _325  and  _326
REMARK  138  A    between atoms: _325  and  _328
REMARK  139  A    between atoms: _328  and  _329
REMARK  140  A    between atoms: _329  and  _330
REMARK  141  A    between atoms: _335  and  _337
REMARK  142  A    between atoms: _337  and  _338
REMARK  143  A    between atoms: _337  and  _340
REMARK  144  A    between atoms: _340  and  _341
REMARK  145  A    between atoms: _341  and  _342
REMARK  146  A    between atoms: _347  and  _349
REMARK  147  A    between atoms: _349  and  _350
REMARK  148  A    between atoms: _349  and  _352
REMARK  149  A    between atoms: _352  and  _353
REMARK  150  A    between atoms: _359  and  _361
REMARK  151  A    between atoms: _361  and  _362
REMARK  152  A    between atoms: _361  and  _364
REMARK  153  A    between atoms: _366  and  _368
REMARK  154  A    between atoms: _368  and  _369
REMARK  155  A    between atoms: _368  and  _371
REMARK  156  A    between atoms: _371  and  _372
REMARK  157  A    between atoms: _372  and  _373
REMARK  158  A    between atoms: _375  and  _377
REMARK  159  A    between atoms: _377  and  _378
REMARK  160  A    between atoms: _377  and  _380
REMARK  161  A    between atoms: _380  and  _381
REMARK  162  A    between atoms: _381  and  _382
REMARK  163  A    between atoms: _381  and  _383
REMARK  164  A    between atoms: _386  and  _388
REMARK  165  A    between atoms: _388  and  _389
REMARK  166  A    between atoms: _391  and  _393
REMARK  167  A    between atoms: _393  and  _394
REMARK  168  A    between atoms: _393  and  _396
REMARK  169  A    between atoms: _396  and  _397
REMARK  170  A    between atoms: _400  and  _402
REMARK  171  A    between atoms: _402  and  _403
REMARK  172  A    between atoms: _402  and  _405
REMARK  173  A    between atoms: _405  and  _406
REMARK  174  A    between atoms: _409  and  _411
REMARK  175  A    between atoms: _411  and  _412
REMARK  176  A    between atoms: _411  and  _414
REMARK  177  A    between atoms: _414  and  _415
REMARK  178  A    between atoms: _417  and  _419
REMARK  179  A    between atoms: _419  and  _420
REMARK  180  A    between atoms: _419  and  _422
REMARK  181  A    between atoms: _422  and  _423
REMARK  182  A    between atoms: _433  and  _435
REMARK  183  A    between atoms: _435  and  _436
REMARK  184  A    between atoms: _435  and  _438
REMARK  185  A    between atoms: _438  and  _439
REMARK  186  A    between atoms: _439  and  _440
REMARK                            x       y       z     vdW  Elec       q    Type
REMARK                         _______ _______ _______ _____ _____    ______ ____
ROOT
ATOM      1  O   HOH     1     -12.347 -25.369 -18.063  0.00  0.00    +0.000 OA
ENDROOT
TORSDOF 0
REMARK  Name = ../refined-set-2016/3t2q/3t2q_pocket.pdb
REMARK  186 active torsions:
REMARK  status: ('A' for Active; 'I' for Inactive)
REMARK    1  A    between atoms: _1  and  _3
REMARK    2  A    between atoms: _3  and  _4
REMARK    3  A    between atoms: _3  and  _6
REMARK    4  A    between atoms: _6  and  _7
REMARK    5  A    between atoms: _12  and  _13
REMARK    6  A    between atoms: _15  and  _17
REMARK    7  A    between atoms: _17  and  _18
REMARK    8  A    between atoms: _17  and  _20
REMARK    9  A    between atoms: _20  and  _21
REMARK   10  A    between atoms: _24  and  _26
REMARK   11  A    between atoms: _26  and  _27
REMARK   12  A    between atoms: _26  and  _29
REMARK   13  A    between atoms: _29  and  _30
REMARK   14  A    between atoms: _35  and  _37
REMARK   15  A    between atoms: _37  and  _38
REMARK   16  A    between atoms: _37  and  _40
REMARK   17  A    between atoms: _43  and  _45
REMARK   18  A    between atoms: _45  and  _46
REMARK   19  A    between atoms: _45  and  _48
REMARK   20  A    between atoms: _48  and  _49
REMARK   21  A    between atoms: _52  and  _54
REMARK   22  A    between atoms: _54  and  _55
REMARK   23  A    between atoms: _54  and  _57
REMARK   24  A    between atoms: _57  and  _58
REMARK   25  A    between atoms: _58  and  _59
REMARK   26  A    between atoms: _64  and  _66
REMARK   27  A    between atoms: _66  and  _67
REMARK   28  A    between atoms: _66  and  _69
REMARK   29  A    between atoms: _69  and  _70
REMARK   30  A    between atoms: _73  and  _75
REMARK   31  A    between atoms: _75  and  _76
REMARK   32  A    between atoms: _75  and  _78
REMARK   33  A    between atoms: _78  and  _79
REMARK   34  A    between atoms: _79  and  _80
REMARK   35  A    between atoms: _82  and  _84
REMARK   36  A    between atoms: _84  and  _85
REMARK   37  A    between atoms: _84  and  _87
REMARK   38  A    between atoms: _87  and  _88
REMARK   39  A    between atoms: _88  and  _89
REMARK   40  A    between atoms: _89  and  _90
REMARK   41  A    between atoms: _99  and  _101
REMARK   42  A    between atoms: _101  and  _102
REMARK   43  A    between atoms: _101  and  _104
REMARK   44  A    between atoms: _104  and  _105
REMARK   45  A    between atoms: _110  and  _112
REMARK   46  A    between atoms: _112  and  _113
REMARK   47  A    between atoms: _112  and  _115
REMARK   48  A    between atoms: _115  and  _116
REMARK   49  A    between atoms: _121  and  _123
REMARK   50  A    between atoms: _123  and  _124
REMARK   51  A    between atoms: _123  and  _126
REMARK   52  A    between atoms: _126  and  _127
REMARK   53  A    between atoms: _127  and  _128
REMARK   54  A    between atoms: _128  and  _129
REMARK   55  A    between atoms: _138  and  _140
REMARK   56  A    between atoms: _140  and  _141
REMARK   57  A    between atoms: _140  and  _143
REMARK   58  A    between atoms: _143  and  _144
REMARK   59  A    between atoms: _146  and  _148
REMARK   60  A    between atoms: _148  and  _149
REMARK   61  A    between atoms: _148  and  _151
REMARK   62  A    between atoms: _151  and  _152
REMARK   63  A    between atoms: _157  and  _159
REMARK   64  A    between atoms: _159  and  _160
REMARK   65  A    between atoms: _159  and  _162
REMARK   66  A    between atoms: _162  and  _163
REMARK   67  A    between atoms: _163  and  _164
REMARK   68  A    between atoms: _167  and  _169
REMARK   69  A    between atoms: _169  and  _170
REMARK   70  A    between atoms: _169  and  _172
REMARK   71  A    between atoms: _172  and  _173
REMARK   72  A    between atoms: _173  and  _174
REMARK   73  A    between atoms: _177  and  _179
REMARK   74  A    between atoms: _179  and  _180
REMARK   75  A    between atoms: _179  and  _182
REMARK   76  A    between atoms: _182  and  _183
REMARK   77  A    between atoms: _184  and  MG_443
REMARK   78  A    between atoms: _188  and  _190
REMARK   79  A    between atoms: _190  and  _191
REMARK   80  A    between atoms: _190  and  _193
REMARK   81  A    between atoms: _193  and  _194
REMARK   82  A    between atoms: _199  and  _201
REMARK   83  A    between atoms: _201  and  _202
REMARK   84  A    between atoms: _201  and  _204
REMARK   85  A    between atoms: _204  and  _205
REMARK   86  A    between atoms: _205  and  _206
REMARK   87  A    between atoms: _209  and  _211
REMARK   88  A    between atoms: _211  and  _212
REMARK   89  A    between atoms: _211  and  _214
REMARK   90  A    between atoms: _214  and  _215
REMARK   91  A    between atoms: _215  and  _216
REMARK   92  A    between atoms: _219  and  _221
REMARK   93  A    between atoms: _221  and  _222
REMARK   94  A    between atoms: _221  and  _224
REMARK   95  A    between atoms: _224  and  _225
REMARK   96  A    between atoms: _225  and  _226
REMARK   97  A    between atoms: _228  and  _230
REMARK   98  A    between atoms: _230  and  _231
REMARK   99  A    between atoms: _230  and  _233
REMARK  100  A    between atoms: _233  and  _234
REMARK  101  A    between atoms: _239  and  _240
REMARK  102  A    between atoms: _242  and  _244
REMARK  103  A    between atoms: _244  and  _245
REMARK  104  A    between atoms: _244  and  _247
REMARK  105  A    between atoms: _247  and  _248
REMARK  106  A    between atoms: _248  and  _249
REMARK  107  A    between atoms: _249  and  _250
REMARK  108  A    between atoms: _250  and  _251
REMARK  109  A    between atoms: _255  and  _257
REMARK  110  A    between atoms: _257  and  _258
REMARK  111  A    between atoms: _257  and  _260
REMARK  112  A    between atoms: _262  and  _264
REMARK  113  A    between atoms: _264  and  _265
REMARK  114  A    between atoms: _264  and  _267
REMARK  115  A    between atoms: _267  and  _268
REMARK  116  A    between atoms: _268  and  _269
REMARK  117  A    between atoms: _272  and  _274
REMARK  118  A    between atoms: _274  and  _275
REMARK  119  A    between atoms: _274  and  _277
REMARK  120  A    between atoms: _277  and  _278
REMARK  121  A    between atoms: _283  and  _285
REMARK  122  A    between atoms: _285  and  _286
REMARK  123  A    between atoms: _289  and  _291
REMARK  124  A    between atoms: _291  and  _292
REMARK  125  A    between atoms: _291  and  _294
REMARK  126  A    between atoms: _294  and  _295
REMARK  127  A    between atoms: _295  and  _296
REMARK  128  A    between atoms: _298  and  _300
REMARK  129  A    between atoms: _300  and  _301
REMARK  130  A    between atoms: _300  and  _303
REMARK  131  A    between atoms: _303  and  _304
REMARK  132  A    between atoms: _314  and  _316
REMARK  133  A    between atoms: _316  and  _317
REMARK  134  A    between atoms: _316  and  _319
REMARK  135  A    between atoms: _319  and  _320
REMARK  136  A    between atoms: _323  and  _325
REMARK  137  A    between atoms: _325  and  _326
REMARK  138  A    between atoms: _325  and  _328
REMARK  139  A    between atoms: _328  and  _329
REMARK  140  A    between atoms: _329  and  _330
REMARK  141  A    between atoms: _335  and  _337
REMARK  142  A    between atoms: _337  and  _338
REMARK  143  A    between atoms: _337  and  _340
REMARK  144  A    between atoms: _340  and  _341
REMARK  145  A    between atoms: _341  and  _342
REMARK  146  A    between atoms: _347  and  _349
REMARK  147  A    between atoms: _349  and  _350
REMARK  148  A    between atoms: _349  and  _352
REMARK  149  A    between atoms: _352  and  _353
REMARK  150  A    between atoms: _359  and  _361
REMARK  151  A    between atoms: _361  and  _362
REMARK  152  A    between atoms: _361  and  _364
REMARK  153  A    between atoms: _366  and  _368
REMARK  154  A    between atoms: _368  and  _369
REMARK  155  A    between atoms: _368  and  _371
REMARK  156  A    between atoms: _371  and  _372
REMARK  157  A    between atoms: _372  and  _373
REMARK  158  A    between atoms: _375  and  _377
REMARK  159  A    between atoms: _377  and  _378
REMARK  160  A    between atoms: _377  and  _380
REMARK  161  A    between atoms: _380  and  _381
REMARK  162  A    between atoms: _381  and  _382
REMARK  163  A    between atoms: _381  and  _383
REMARK  164  A    between atoms: _386  and  _388
REMARK  165  A    between atoms: _388  and  _389
REMARK  166  A    between atoms: _391  and  _393
REMARK  167  A    between atoms: _393  and  _394
REMARK  168  A    between atoms: _393  and  _396
REMARK  169  A    between atoms: _396  and  _397
REMARK  170  A    between atoms: _400  and  _402
REMARK  171  A    between atoms: _402  and  _403
REMARK  172  A    between atoms: _402  and  _405
REMARK  173  A    between atoms: _405  and  _406
REMARK  174  A    between atoms: _409  and  _411
REMARK  175  A    between atoms: _411  and  _412
REMARK  176  A    between atoms: _411  and  _414
REMARK  177  A    between atoms: _414  and  _415
REMARK  178  A    between atoms: _417  and  _419
REMARK  179  A    between atoms: _419  and  _420
REMARK  180  A    between atoms: _419  and  _422
REMARK  181  A    between atoms: _422  and  _423
REMARK  182  A    between atoms: _433  and  _435
REMARK  183  A    between atoms: _435  and  _436
REMARK  184  A    between atoms: _435  and  _438
REMARK  185  A    between atoms: _438  and  _439
REMARK  186  A    between atoms: _439  and  _440
REMARK                            x       y       z     vdW  Elec       q    Type
REMARK                         _______ _______ _______ _____ _____    ______ ____
ROOT
ATOM      1  O   HOH     1      -8.363 -25.256 -19.139  0.00  0.00    +0.000 OA
ENDROOT
TORSDOF 0
REMARK  Name = ../refined-set-2016/3t2q/3t2q_pocket.pdb
REMARK  186 active torsions:
REMARK  status: ('A' for Active; 'I' for Inactive)
REMARK    1  A    between atoms: _1  and  _3
REMARK    2  A    between atoms: _3  and  _4
REMARK    3  A    between atoms: _3  and  _6
REMARK    4  A    between atoms: _6  and  _7
REMARK    5  A    between atoms: _12  and  _13
REMARK    6  A    between atoms: _15  and  _17
REMARK    7  A    between atoms: _17  and  _18
REMARK    8  A    between atoms: _17  and  _20
REMARK    9  A    between atoms: _20  and  _21
REMARK   10  A    between atoms: _24  and  _26
REMARK   11  A    between atoms: _26  and  _27
REMARK   12  A    between atoms: _26  and  _29
REMARK   13  A    between atoms: _29  and  _30
REMARK   14  A    between atoms: _35  and  _37
REMARK   15  A    between atoms: _37  and  _38
REMARK   16  A    between atoms: _37  and  _40
REMARK   17  A    between atoms: _43  and  _45
REMARK   18  A    between atoms: _45  and  _46
REMARK   19  A    between atoms: _45  and  _48
REMARK   20  A    between atoms: _48  and  _49
REMARK   21  A    between atoms: _52  and  _54
REMARK   22  A    between atoms: _54  and  _55
REMARK   23  A    between atoms: _54  and  _57
REMARK   24  A    between atoms: _57  and  _58
REMARK   25  A    between atoms: _58  and  _59
REMARK   26  A    between atoms: _64  and  _66
REMARK   27  A    between atoms: _66  and  _67
REMARK   28  A    between atoms: _66  and  _69
REMARK   29  A    between atoms: _69  and  _70
REMARK   30  A    between atoms: _73  and  _75
REMARK   31  A    between atoms: _75  and  _76
REMARK   32  A    between atoms: _75  and  _78
REMARK   33  A    between atoms: _78  and  _79
REMARK   34  A    between atoms: _79  and  _80
REMARK   35  A    between atoms: _82  and  _84
REMARK   36  A    between atoms: _84  and  _85
REMARK   37  A    between atoms: _84  and  _87
REMARK   38  A    between atoms: _87  and  _88
REMARK   39  A    between atoms: _88  and  _89
REMARK   40  A    between atoms: _89  and  _90
REMARK   41  A    between atoms: _99  and  _101
REMARK   42  A    between atoms: _101  and  _102
REMARK   43  A    between atoms: _101  and  _104
REMARK   44  A    between atoms: _104  and  _105
REMARK   45  A    between atoms: _110  and  _112
REMARK   46  A    between atoms: _112  and  _113
REMARK   47  A    between atoms: _112  and  _115
REMARK   48  A    between atoms: _115  and  _116
REMARK   49  A    between atoms: _121  and  _123
REMARK   50  A    between atoms: _123  and  _124
REMARK   51  A    between atoms: _123  and  _126
REMARK   52  A    between atoms: _126  and  _127
REMARK   53  A    between atoms: _127  and  _128
REMARK   54  A    between atoms: _128  and  _129
REMARK   55  A    between atoms: _138  and  _140
REMARK   56  A    between atoms: _140  and  _141
REMARK   57  A    between atoms: _140  and  _143
REMARK   58  A    between atoms: _143  and  _144
REMARK   59  A    between atoms: _146  and  _148
REMARK   60  A    between atoms: _148  and  _149
REMARK   61  A    between atoms: _148  and  _151
REMARK   62  A    between atoms: _151  and  _152
REMARK   63  A    between atoms: _157  and  _159
REMARK   64  A    between atoms: _159  and  _160
REMARK   65  A    between atoms: _159  and  _162
REMARK   66  A    between atoms: _162  and  _163
REMARK   67  A    between atoms: _163  and  _164
REMARK   68  A    between atoms: _167  and  _169
REMARK   69  A    between atoms: _169  and  _170
REMARK   70  A    between atoms: _169  and  _172
REMARK   71  A    between atoms: _172  and  _173
REMARK   72  A    between atoms: _173  and  _174
REMARK   73  A    between atoms: _177  and  _179
REMARK   74  A    between atoms: _179  and  _180
REMARK   75  A    between atoms: _179  and  _182
REMARK   76  A    between atoms: _182  and  _183
REMARK   77  A    between atoms: _184  and  MG_443
REMARK   78  A    between atoms: _188  and  _190
REMARK   79  A    between atoms: _190  and  _191
REMARK   80  A    between atoms: _190  and  _193
REMARK   81  A    between atoms: _193  and  _194
REMARK   82  A    between atoms: _199  and  _201
REMARK   83  A    between atoms: _201  and  _202
REMARK   84  A    between atoms: _201  and  _204
REMARK   85  A    between atoms: _204  and  _205
REMARK   86  A    between atoms: _205  and  _206
REMARK   87  A    between atoms: _209  and  _211
REMARK   88  A    between atoms: _211  and  _212
REMARK   89  A    between atoms: _211  and  _214
REMARK   90  A    between atoms: _214  and  _215
REMARK   91  A    between atoms: _215  and  _216
REMARK   92  A    between atoms: _219  and  _221
REMARK   93  A    between atoms: _221  and  _222
REMARK   94  A    between atoms: _221  and  _224
REMARK   95  A    between atoms: _224  and  _225
REMARK   96  A    between atoms: _225  and  _226
REMARK   97  A    between atoms: _228  and  _230
REMARK   98  A    between atoms: _230  and  _231
REMARK   99  A    between atoms: _230  and  _233
REMARK  100  A    between atoms: _233  and  _234
REMARK  101  A    between atoms: _239  and  _240
REMARK  102  A    between atoms: _242  and  _244
REMARK  103  A    between atoms: _244  and  _245
REMARK  104  A    between atoms: _244  and  _247
REMARK  105  A    between atoms: _247  and  _248
REMARK  106  A    between atoms: _248  and  _249
REMARK  107  A    between atoms: _249  and  _250
REMARK  108  A    between atoms: _250  and  _251
REMARK  109  A    between atoms: _255  and  _257
REMARK  110  A    between atoms: _257  and  _258
REMARK  111  A    between atoms: _257  and  _260
REMARK  112  A    between atoms: _262  and  _264
REMARK  113  A    between atoms: _264  and  _265
REMARK  114  A    between atoms: _264  and  _267
REMARK  115  A    between atoms: _267  and  _268
REMARK  116  A    between atoms: _268  and  _269
REMARK  117  A    between atoms: _272  and  _274
REMARK  118  A    between atoms: _274  and  _275
REMARK  119  A    between atoms: _274  and  _277
REMARK  120  A    between atoms: _277  and  _278
REMARK  121  A    between atoms: _283  and  _285
REMARK  122  A    between atoms: _285  and  _286
REMARK  123  A    between atoms: _289  and  _291
REMARK  124  A    between atoms: _291  and  _292
REMARK  125  A    between atoms: _291  and  _294
REMARK  126  A    between atoms: _294  and  _295
REMARK  127  A    between atoms: _295  and  _296
REMARK  128  A    between atoms: _298  and  _300
REMARK  129  A    between atoms: _300  and  _301
REMARK  130  A    between atoms: _300  and  _303
REMARK  131  A    between atoms: _303  and  _304
REMARK  132  A    between atoms: _314  and  _316
REMARK  133  A    between atoms: _316  and  _317
REMARK  134  A    between atoms: _316  and  _319
REMARK  135  A    between atoms: _319  and  _320
REMARK  136  A    between atoms: _323  and  _325
REMARK  137  A    between atoms: _325  and  _326
REMARK  138  A    between atoms: _325  and  _328
REMARK  139  A    between atoms: _328  and  _329
REMARK  140  A    between atoms: _329  and  _330
REMARK  141  A    between atoms: _335  and  _337
REMARK  142  A    between atoms: _337  and  _338
REMARK  143  A    between atoms: _337  and  _340
REMARK  144  A    between atoms: _340  and  _341
REMARK  145  A    between atoms: _341  and  _342
REMARK  146  A    between atoms: _347  and  _349
REMARK  147  A    between atoms: _349  and  _350
REMARK  148  A    between atoms: _349  and  _352
REMARK  149  A    between atoms: _352  and  _353
REMARK  150  A    between atoms: _359  and  _361
REMARK  151  A    between atoms: _361  and  _362
REMARK  152  A    between atoms: _361  and  _364
REMARK  153  A    between atoms: _366  and  _368
REMARK  154  A    between atoms: _368  and  _369
REMARK  155  A    between atoms: _368  and  _371
REMARK  156  A    between atoms: _371  and  _372
REMARK  157  A    between atoms: _372  and  _373
REMARK  158  A    between atoms: _375  and  _377
REMARK  159  A    between atoms: _377  and  _378
REMARK  160  A    between atoms: _377  and  _380
REMARK  161  A    between atoms: _380  and  _381
REMARK  162  A    between atoms: _381  and  _382
REMARK  163  A    between atoms: _381  and  _383
REMARK  164  A    between atoms: _386  and  _388
REMARK  165  A    between atoms: _388  and  _389
REMARK  166  A    between atoms: _391  and  _393
REMARK  167  A    between atoms: _393  and  _394
REMARK  168  A    between atoms: _393  and  _396
REMARK  169  A    between atoms: _396  and  _397
REMARK  170  A    between atoms: _400  and  _402
REMARK  171  A    between atoms: _402  and  _403
REMARK  172  A    between atoms: _402  and  _405
REMARK  173  A    between atoms: _405  and  _406
REMARK  174  A    between atoms: _409  and  _411
REMARK  175  A    between atoms: _411  and  _412
REMARK  176  A    between atoms: _411  and  _414
REMARK  177  A    between atoms: _414  and  _415
REMARK  178  A    between atoms: _417  and  _419
REMARK  179  A    between atoms: _419  and  _420
REMARK  180  A    between atoms: _419  and  _422
REMARK  181  A    between atoms: _422  and  _423
REMARK  182  A    between atoms: _433  and  _435
REMARK  183  A    between atoms: _435  and  _436
REMARK  184  A    between atoms: _435  and  _438
REMARK  185  A    between atoms: _438  and  _439
REMARK  186  A    between atoms: _439  and  _440
REMARK                            x       y       z     vdW  Elec       q    Type
REMARK                         _______ _______ _______ _____ _____    ______ ____
ROOT
ATOM      1  O   HOH     1     -15.505 -23.442 -23.223  0.00  0.00    +0.000 OA
ENDROOT
TORSDOF 0
REMARK  Name = ../refined-set-2016/3t2q/3t2q_pocket.pdb
REMARK  186 active torsions:
REMARK  status: ('A' for Active; 'I' for Inactive)
REMARK    1  A    between atoms: _1  and  _3
REMARK    2  A    between atoms: _3  and  _4
REMARK    3  A    between atoms: _3  and  _6
REMARK    4  A    between atoms: _6  and  _7
REMARK    5  A    between atoms: _12  and  _13
REMARK    6  A    between atoms: _15  and  _17
REMARK    7  A    between atoms: _17  and  _18
REMARK    8  A    between atoms: _17  and  _20
REMARK    9  A    between atoms: _20  and  _21
REMARK   10  A    between atoms: _24  and  _26
REMARK   11  A    between atoms: _26  and  _27
REMARK   12  A    between atoms: _26  and  _29
REMARK   13  A    between atoms: _29  and  _30
REMARK   14  A    between atoms: _35  and  _37
REMARK   15  A    between atoms: _37  and  _38
REMARK   16  A    between atoms: _37  and  _40
REMARK   17  A    between atoms: _43  and  _45
REMARK   18  A    between atoms: _45  and  _46
REMARK   19  A    between atoms: _45  and  _48
REMARK   20  A    between atoms: _48  and  _49
REMARK   21  A    between atoms: _52  and  _54
REMARK   22  A    between atoms: _54  and  _55
REMARK   23  A    between atoms: _54  and  _57
REMARK   24  A    between atoms: _57  and  _58
REMARK   25  A    between atoms: _58  and  _59
REMARK   26  A    between atoms: _64  and  _66
REMARK   27  A    between atoms: _66  and  _67
REMARK   28  A    between atoms: _66  and  _69
REMARK   29  A    between atoms: _69  and  _70
REMARK   30  A    between atoms: _73  and  _75
REMARK   31  A    between atoms: _75  and  _76
REMARK   32  A    between atoms: _75  and  _78
REMARK   33  A    between atoms: _78  and  _79
REMARK   34  A    between atoms: _79  and  _80
REMARK   35  A    between atoms: _82  and  _84
REMARK   36  A    between atoms: _84  and  _85
REMARK   37  A    between atoms: _84  and  _87
REMARK   38  A    between atoms: _87  and  _88
REMARK   39  A    between atoms: _88  and  _89
REMARK   40  A    between atoms: _89  and  _90
REMARK   41  A    between atoms: _99  and  _101
REMARK   42  A    between atoms: _101  and  _102
REMARK   43  A    between atoms: _101  and  _104
REMARK   44  A    between atoms: _104  and  _105
REMARK   45  A    between atoms: _110  and  _112
REMARK   46  A    between atoms: _112  and  _113
REMARK   47  A    between atoms: _112  and  _115
REMARK   48  A    between atoms: _115  and  _116
REMARK   49  A    between atoms: _121  and  _123
REMARK   50  A    between atoms: _123  and  _124
REMARK   51  A    between atoms: _123  and  _126
REMARK   52  A    between atoms: _126  and  _127
REMARK   53  A    between atoms: _127  and  _128
REMARK   54  A    between atoms: _128  and  _129
REMARK   55  A    between atoms: _138  and  _140
REMARK   56  A    between atoms: _140  and  _141
REMARK   57  A    between atoms: _140  and  _143
REMARK   58  A    between atoms: _143  and  _144
REMARK   59  A    between atoms: _146  and  _148
REMARK   60  A    between atoms: _148  and  _149
REMARK   61  A    between atoms: _148  and  _151
REMARK   62  A    between atoms: _151  and  _152
REMARK   63  A    between atoms: _157  and  _159
REMARK   64  A    between atoms: _159  and  _160
REMARK   65  A    between atoms: _159  and  _162
REMARK   66  A    between atoms: _162  and  _163
REMARK   67  A    between atoms: _163  and  _164
REMARK   68  A    between atoms: _167  and  _169
REMARK   69  A    between atoms: _169  and  _170
REMARK   70  A    between atoms: _169  and  _172
REMARK   71  A    between atoms: _172  and  _173
REMARK   72  A    between atoms: _173  and  _174
REMARK   73  A    between atoms: _177  and  _179
REMARK   74  A    between atoms: _179  and  _180
REMARK   75  A    between atoms: _179  and  _182
REMARK   76  A    between atoms: _182  and  _183
REMARK   77  A    between atoms: _184  and  MG_443
REMARK   78  A    between atoms: _188  and  _190
REMARK   79  A    between atoms: _190  and  _191
REMARK   80  A    between atoms: _190  and  _193
REMARK   81  A    between atoms: _193  and  _194
REMARK   82  A    between atoms: _199  and  _201
REMARK   83  A    between atoms: _201  and  _202
REMARK   84  A    between atoms: _201  and  _204
REMARK   85  A    between atoms: _204  and  _205
REMARK   86  A    between atoms: _205  and  _206
REMARK   87  A    between atoms: _209  and  _211
REMARK   88  A    between atoms: _211  and  _212
REMARK   89  A    between atoms: _211  and  _214
REMARK   90  A    between atoms: _214  and  _215
REMARK   91  A    between atoms: _215  and  _216
REMARK   92  A    between atoms: _219  and  _221
REMARK   93  A    between atoms: _221  and  _222
REMARK   94  A    between atoms: _221  and  _224
REMARK   95  A    between atoms: _224  and  _225
REMARK   96  A    between atoms: _225  and  _226
REMARK   97  A    between atoms: _228  and  _230
REMARK   98  A    between atoms: _230  and  _231
REMARK   99  A    between atoms: _230  and  _233
REMARK  100  A    between atoms: _233  and  _234
REMARK  101  A    between atoms: _239  and  _240
REMARK  102  A    between atoms: _242  and  _244
REMARK  103  A    between atoms: _244  and  _245
REMARK  104  A    between atoms: _244  and  _247
REMARK  105  A    between atoms: _247  and  _248
REMARK  106  A    between atoms: _248  and  _249
REMARK  107  A    between atoms: _249  and  _250
REMARK  108  A    between atoms: _250  and  _251
REMARK  109  A    between atoms: _255  and  _257
REMARK  110  A    between atoms: _257  and  _258
REMARK  111  A    between atoms: _257  and  _260
REMARK  112  A    between atoms: _262  and  _264
REMARK  113  A    between atoms: _264  and  _265
REMARK  114  A    between atoms: _264  and  _267
REMARK  115  A    between atoms: _267  and  _268
REMARK  116  A    between atoms: _268  and  _269
REMARK  117  A    between atoms: _272  and  _274
REMARK  118  A    between atoms: _274  and  _275
REMARK  119  A    between atoms: _274  and  _277
REMARK  120  A    between atoms: _277  and  _278
REMARK  121  A    between atoms: _283  and  _285
REMARK  122  A    between atoms: _285  and  _286
REMARK  123  A    between atoms: _289  and  _291
REMARK  124  A    between atoms: _291  and  _292
REMARK  125  A    between atoms: _291  and  _294
REMARK  126  A    between atoms: _294  and  _295
REMARK  127  A    between atoms: _295  and  _296
REMARK  128  A    between atoms: _298  and  _300
REMARK  129  A    between atoms: _300  and  _301
REMARK  130  A    between atoms: _300  and  _303
REMARK  131  A    between atoms: _303  and  _304
REMARK  132  A    between atoms: _314  and  _316
REMARK  133  A    between atoms: _316  and  _317
REMARK  134  A    between atoms: _316  and  _319
REMARK  135  A    between atoms: _319  and  _320
REMARK  136  A    between atoms: _323  and  _325
REMARK  137  A    between atoms: _325  and  _326
REMARK  138  A    between atoms: _325  and  _328
REMARK  139  A    between atoms: _328  and  _329
REMARK  140  A    between atoms: _329  and  _330
REMARK  141  A    between atoms: _335  and  _337
REMARK  142  A    between atoms: _337  and  _338
REMARK  143  A    between atoms: _337  and  _340
REMARK  144  A    between atoms: _340  and  _341
REMARK  145  A    between atoms: _341  and  _342
REMARK  146  A    between atoms: _347  and  _349
REMARK  147  A    between atoms: _349  and  _350
REMARK  148  A    between atoms: _349  and  _352
REMARK  149  A    between atoms: _352  and  _353
REMARK  150  A    between atoms: _359  and  _361
REMARK  151  A    between atoms: _361  and  _362
REMARK  152  A    between atoms: _361  and  _364
REMARK  153  A    between atoms: _366  and  _368
REMARK  154  A    between atoms: _368  and  _369
REMARK  155  A    between atoms: _368  and  _371
REMARK  156  A    between atoms: _371  and  _372
REMARK  157  A    between atoms: _372  and  _373
REMARK  158  A    between atoms: _375  and  _377
REMARK  159  A    between atoms: _377  and  _378
REMARK  160  A    between atoms: _377  and  _380
REMARK  161  A    between atoms: _380  and  _381
REMARK  162  A    between atoms: _381  and  _382
REMARK  163  A    between atoms: _381  and  _383
REMARK  164  A    between atoms: _386  and  _388
REMARK  165  A    between atoms: _388  and  _389
REMARK  166  A    between atoms: _391  and  _393
REMARK  167  A    between atoms: _393  and  _394
REMARK  168  A    between atoms: _393  and  _396
REMARK  169  A    between atoms: _396  and  _397
REMARK  170  A    between atoms: _400  and  _402
REMARK  171  A    between atoms: _402  and  _403
REMARK  172  A    between atoms: _402  and  _405
REMARK  173  A    between atoms: _405  and  _406
REMARK  174  A    between atoms: _409  and  _411
REMARK  175  A    between atoms: _411  and  _412
REMARK  176  A    between atoms: _411  and  _414
REMARK  177  A    between atoms: _414  and  _415
REMARK  178  A    between atoms: _417  and  _419
REMARK  179  A    between atoms: _419  and  _420
REMARK  180  A    between atoms: _419  and  _422
REMARK  181  A    between atoms: _422  and  _423
REMARK  182  A    between atoms: _433  and  _435
REMARK  183  A    between atoms: _435  and  _436
REMARK  184  A    between atoms: _435  and  _438
REMARK  185  A    between atoms: _438  and  _439
REMARK  186  A    between atoms: _439  and  _440
REMARK                            x       y       z     vdW  Elec       q    Type
REMARK                         _______ _______ _______ _____ _____    ______ ____
ROOT
ATOM      1  O   HOH     1     -12.429 -33.293 -22.760  0.00  0.00    +0.000 OA
ENDROOT
TORSDOF 0
REMARK  Name = ../refined-set-2016/3t2q/3t2q_pocket.pdb
REMARK  186 active torsions:
REMARK  status: ('A' for Active; 'I' for Inactive)
REMARK    1  A    between atoms: _1  and  _3
REMARK    2  A    between atoms: _3  and  _4
REMARK    3  A    between atoms: _3  and  _6
REMARK    4  A    between atoms: _6  and  _7
REMARK    5  A    between atoms: _12  and  _13
REMARK    6  A    between atoms: _15  and  _17
REMARK    7  A    between atoms: _17  and  _18
REMARK    8  A    between atoms: _17  and  _20
REMARK    9  A    between atoms: _20  and  _21
REMARK   10  A    between atoms: _24  and  _26
REMARK   11  A    between atoms: _26  and  _27
REMARK   12  A    between atoms: _26  and  _29
REMARK   13  A    between atoms: _29  and  _30
REMARK   14  A    between atoms: _35  and  _37
REMARK   15  A    between atoms: _37  and  _38
REMARK   16  A    between atoms: _37  and  _40
REMARK   17  A    between atoms: _43  and  _45
REMARK   18  A    between atoms: _45  and  _46
REMARK   19  A    between atoms: _45  and  _48
REMARK   20  A    between atoms: _48  and  _49
REMARK   21  A    between atoms: _52  and  _54
REMARK   22  A    between atoms: _54  and  _55
REMARK   23  A    between atoms: _54  and  _57
REMARK   24  A    between atoms: _57  and  _58
REMARK   25  A    between atoms: _58  and  _59
REMARK   26  A    between atoms: _64  and  _66
REMARK   27  A    between atoms: _66  and  _67
REMARK   28  A    between atoms: _66  and  _69
REMARK   29  A    between atoms: _69  and  _70
REMARK   30  A    between atoms: _73  and  _75
REMARK   31  A    between atoms: _75  and  _76
REMARK   32  A    between atoms: _75  and  _78
REMARK   33  A    between atoms: _78  and  _79
REMARK   34  A    between atoms: _79  and  _80
REMARK   35  A    between atoms: _82  and  _84
REMARK   36  A    between atoms: _84  and  _85
REMARK   37  A    between atoms: _84  and  _87
REMARK   38  A    between atoms: _87  and  _88
REMARK   39  A    between atoms: _88  and  _89
REMARK   40  A    between atoms: _89  and  _90
REMARK   41  A    between atoms: _99  and  _101
REMARK   42  A    between atoms: _101  and  _102
REMARK   43  A    between atoms: _101  and  _104
REMARK   44  A    between atoms: _104  and  _105
REMARK   45  A    between atoms: _110  and  _112
REMARK   46  A    between atoms: _112  and  _113
REMARK   47  A    between atoms: _112  and  _115
REMARK   48  A    between atoms: _115  and  _116
REMARK   49  A    between atoms: _121  and  _123
REMARK   50  A    between atoms: _123  and  _124
REMARK   51  A    between atoms: _123  and  _126
REMARK   52  A    between atoms: _126  and  _127
REMARK   53  A    between atoms: _127  and  _128
REMARK   54  A    between atoms: _128  and  _129
REMARK   55  A    between atoms: _138  and  _140
REMARK   56  A    between atoms: _140  and  _141
REMARK   57  A    between atoms: _140  and  _143
REMARK   58  A    between atoms: _143  and  _144
REMARK   59  A    between atoms: _146  and  _148
REMARK   60  A    between atoms: _148  and  _149
REMARK   61  A    between atoms: _148  and  _151
REMARK   62  A    between atoms: _151  and  _152
REMARK   63  A    between atoms: _157  and  _159
REMARK   64  A    between atoms: _159  and  _160
REMARK   65  A    between atoms: _159  and  _162
REMARK   66  A    between atoms: _162  and  _163
REMARK   67  A    between atoms: _163  and  _164
REMARK   68  A    between atoms: _167  and  _169
REMARK   69  A    between atoms: _169  and  _170
REMARK   70  A    between atoms: _169  and  _172
REMARK   71  A    between atoms: _172  and  _173
REMARK   72  A    between atoms: _173  and  _174
REMARK   73  A    between atoms: _177  and  _179
REMARK   74  A    between atoms: _179  and  _180
REMARK   75  A    between atoms: _179  and  _182
REMARK   76  A    between atoms: _182  and  _183
REMARK   77  A    between atoms: _184  and  MG_443
REMARK   78  A    between atoms: _188  and  _190
REMARK   79  A    between atoms: _190  and  _191
REMARK   80  A    between atoms: _190  and  _193
REMARK   81  A    between atoms: _193  and  _194
REMARK   82  A    between atoms: _199  and  _201
REMARK   83  A    between atoms: _201  and  _202
REMARK   84  A    between atoms: _201  and  _204
REMARK   85  A    between atoms: _204  and  _205
REMARK   86  A    between atoms: _205  and  _206
REMARK   87  A    between atoms: _209  and  _211
REMARK   88  A    between atoms: _211  and  _212
REMARK   89  A    between atoms: _211  and  _214
REMARK   90  A    between atoms: _214  and  _215
REMARK   91  A    between atoms: _215  and  _216
REMARK   92  A    between atoms: _219  and  _221
REMARK   93  A    between atoms: _221  and  _222
REMARK   94  A    between atoms: _221  and  _224
REMARK   95  A    between atoms: _224  and  _225
REMARK   96  A    between atoms: _225  and  _226
REMARK   97  A    between atoms: _228  and  _230
REMARK   98  A    between atoms: _230  and  _231
REMARK   99  A    between atoms: _230  and  _233
REMARK  100  A    between atoms: _233  and  _234
REMARK  101  A    between atoms: _239  and  _240
REMARK  102  A    between atoms: _242  and  _244
REMARK  103  A    between atoms: _244  and  _245
REMARK  104  A    between atoms: _244  and  _247
REMARK  105  A    between atoms: _247  and  _248
REMARK  106  A    between atoms: _248  and  _249
REMARK  107  A    between atoms: _249  and  _250
REMARK  108  A    between atoms: _250  and  _251
REMARK  109  A    between atoms: _255  and  _257
REMARK  110  A    between atoms: _257  and  _258
REMARK  111  A    between atoms: _257  and  _260
REMARK  112  A    between atoms: _262  and  _264
REMARK  113  A    between atoms: _264  and  _265
REMARK  114  A    between atoms: _264  and  _267
REMARK  115  A    between atoms: _267  and  _268
REMARK  116  A    between atoms: _268  and  _269
REMARK  117  A    between atoms: _272  and  _274
REMARK  118  A    between atoms: _274  and  _275
REMARK  119  A    between atoms: _274  and  _277
REMARK  120  A    between atoms: _277  and  _278
REMARK  121  A    between atoms: _283  and  _285
REMARK  122  A    between atoms: _285  and  _286
REMARK  123  A    between atoms: _289  and  _291
REMARK  124  A    between atoms: _291  and  _292
REMARK  125  A    between atoms: _291  and  _294
REMARK  126  A    between atoms: _294  and  _295
REMARK  127  A    between atoms: _295  and  _296
REMARK  128  A    between atoms: _298  and  _300
REMARK  129  A    between atoms: _300  and  _301
REMARK  130  A    between atoms: _300  and  _303
REMARK  131  A    between atoms: _303  and  _304
REMARK  132  A    between atoms: _314  and  _316
REMARK  133  A    between atoms: _316  and  _317
REMARK  134  A    between atoms: _316  and  _319
REMARK  135  A    between atoms: _319  and  _320
REMARK  136  A    between atoms: _323  and  _325
REMARK  137  A    between atoms: _325  and  _326
REMARK  138  A    between atoms: _325  and  _328
REMARK  139  A    between atoms: _328  and  _329
REMARK  140  A    between atoms: _329  and  _330
REMARK  141  A    between atoms: _335  and  _337
REMARK  142  A    between atoms: _337  and  _338
REMARK  143  A    between atoms: _337  and  _340
REMARK  144  A    between atoms: _340  and  _341
REMARK  145  A    between atoms: _341  and  _342
REMARK  146  A    between atoms: _347  and  _349
REMARK  147  A    between atoms: _349  and  _350
REMARK  148  A    between atoms: _349  and  _352
REMARK  149  A    between atoms: _352  and  _353
REMARK  150  A    between atoms: _359  and  _361
REMARK  151  A    between atoms: _361  and  _362
REMARK  152  A    between atoms: _361  and  _364
REMARK  153  A    between atoms: _366  and  _368
REMARK  154  A    between atoms: _368  and  _369
REMARK  155  A    between atoms: _368  and  _371
REMARK  156  A    between atoms: _371  and  _372
REMARK  157  A    between atoms: _372  and  _373
REMARK  158  A    between atoms: _375  and  _377
REMARK  159  A    between atoms: _377  and  _378
REMARK  160  A    between atoms: _377  and  _380
REMARK  161  A    between atoms: _380  and  _381
REMARK  162  A    between atoms: _381  and  _382
REMARK  163  A    between atoms: _381  and  _383
REMARK  164  A    between atoms: _386  and  _388
REMARK  165  A    between atoms: _388  and  _389
REMARK  166  A    between atoms: _391  and  _393
REMARK  167  A    between atoms: _393  and  _394
REMARK  168  A    between atoms: _393  and  _396
REMARK  169  A    between atoms: _396  and  _397
REMARK  170  A    between atoms: _400  and  _402
REMARK  171  A    between atoms: _402  and  _403
REMARK  172  A    between atoms: _402  and  _405
REMARK  173  A    between atoms: _405  and  _406
REMARK  174  A    between atoms: _409  and  _411
REMARK  175  A    between atoms: _411  and  _412
REMARK  176  A    between atoms: _411  and  _414
REMARK  177  A    between atoms: _414  and  _415
REMARK  178  A    between atoms: _417  and  _419
REMARK  179  A    between atoms: _419  and  _420
REMARK  180  A    between atoms: _419  and  _422
REMARK  181  A    between atoms: _422  and  _423
REMARK  182  A    between atoms: _433  and  _435
REMARK  183  A    between atoms: _435  and  _436
REMARK  184  A    between atoms: _435  and  _438
REMARK  185  A    between atoms: _438  and  _439
REMARK  186  A    between atoms: _439  and  _440
REMARK                            x       y       z     vdW  Elec       q    Type
REMARK                         _______ _______ _______ _____ _____    ______ ____
ROOT
ATOM      1  O   HOH     1     -14.320 -25.742 -20.838  0.00  0.00    +0.000 OA
ENDROOT
TORSDOF 0
REMARK  Name = ../refined-set-2016/3t2q/3t2q_pocket.pdb
REMARK  186 active torsions:
REMARK  status: ('A' for Active; 'I' for Inactive)
REMARK    1  A    between atoms: _1  and  _3
REMARK    2  A    between atoms: _3  and  _4
REMARK    3  A    between atoms: _3  and  _6
REMARK    4  A    between atoms: _6  and  _7
REMARK    5  A    between atoms: _12  and  _13
REMARK    6  A    between atoms: _15  and  _17
REMARK    7  A    between atoms: _17  and  _18
REMARK    8  A    between atoms: _17  and  _20
REMARK    9  A    between atoms: _20  and  _21
REMARK   10  A    between atoms: _24  and  _26
REMARK   11  A    between atoms: _26  and  _27
REMARK   12  A    between atoms: _26  and  _29
REMARK   13  A    between atoms: _29  and  _30
REMARK   14  A    between atoms: _35  and  _37
REMARK   15  A    between atoms: _37  and  _38
REMARK   16  A    between atoms: _37  and  _40
REMARK   17  A    between atoms: _43  and  _45
REMARK   18  A    between atoms: _45  and  _46
REMARK   19  A    between atoms: _45  and  _48
REMARK   20  A    between atoms: _48  and  _49
REMARK   21  A    between atoms: _52  and  _54
REMARK   22  A    between atoms: _54  and  _55
REMARK   23  A    between atoms: _54  and  _57
REMARK   24  A    between atoms: _57  and  _58
REMARK   25  A    between atoms: _58  and  _59
REMARK   26  A    between atoms: _64  and  _66
REMARK   27  A    between atoms: _66  and  _67
REMARK   28  A    between atoms: _66  and  _69
REMARK   29  A    between atoms: _69  and  _70
REMARK   30  A    between atoms: _73  and  _75
REMARK   31  A    between atoms: _75  and  _76
REMARK   32  A    between atoms: _75  and  _78
REMARK   33  A    between atoms: _78  and  _79
REMARK   34  A    between atoms: _79  and  _80
REMARK   35  A    between atoms: _82  and  _84
REMARK   36  A    between atoms: _84  and  _85
REMARK   37  A    between atoms: _84  and  _87
REMARK   38  A    between atoms: _87  and  _88
REMARK   39  A    between atoms: _88  and  _89
REMARK   40  A    between atoms: _89  and  _90
REMARK   41  A    between atoms: _99  and  _101
REMARK   42  A    between atoms: _101  and  _102
REMARK   43  A    between atoms: _101  and  _104
REMARK   44  A    between atoms: _104  and  _105
REMARK   45  A    between atoms: _110  and  _112
REMARK   46  A    between atoms: _112  and  _113
REMARK   47  A    between atoms: _112  and  _115
REMARK   48  A    between atoms: _115  and  _116
REMARK   49  A    between atoms: _121  and  _123
REMARK   50  A    between atoms: _123  and  _124
REMARK   51  A    between atoms: _123  and  _126
REMARK   52  A    between atoms: _126  and  _127
REMARK   53  A    between atoms: _127  and  _128
REMARK   54  A    between atoms: _128  and  _129
REMARK   55  A    between atoms: _138  and  _140
REMARK   56  A    between atoms: _140  and  _141
REMARK   57  A    between atoms: _140  and  _143
REMARK   58  A    between atoms: _143  and  _144
REMARK   59  A    between atoms: _146  and  _148
REMARK   60  A    between atoms: _148  and  _149
REMARK   61  A    between atoms: _148  and  _151
REMARK   62  A    between atoms: _151  and  _152
REMARK   63  A    between atoms: _157  and  _159
REMARK   64  A    between atoms: _159  and  _160
REMARK   65  A    between atoms: _159  and  _162
REMARK   66  A    between atoms: _162  and  _163
REMARK   67  A    between atoms: _163  and  _164
REMARK   68  A    between atoms: _167  and  _169
REMARK   69  A    between atoms: _169  and  _170
REMARK   70  A    between atoms: _169  and  _172
REMARK   71  A    between atoms: _172  and  _173
REMARK   72  A    between atoms: _173  and  _174
REMARK   73  A    between atoms: _177  and  _179
REMARK   74  A    between atoms: _179  and  _180
REMARK   75  A    between atoms: _179  and  _182
REMARK   76  A    between atoms: _182  and  _183
REMARK   77  A    between atoms: _184  and  MG_443
REMARK   78  A    between atoms: _188  and  _190
REMARK   79  A    between atoms: _190  and  _191
REMARK   80  A    between atoms: _190  and  _193
REMARK   81  A    between atoms: _193  and  _194
REMARK   82  A    between atoms: _199  and  _201
REMARK   83  A    between atoms: _201  and  _202
REMARK   84  A    between atoms: _201  and  _204
REMARK   85  A    between atoms: _204  and  _205
REMARK   86  A    between atoms: _205  and  _206
REMARK   87  A    between atoms: _209  and  _211
REMARK   88  A    between atoms: _211  and  _212
REMARK   89  A    between atoms: _211  and  _214
REMARK   90  A    between atoms: _214  and  _215
REMARK   91  A    between atoms: _215  and  _216
REMARK   92  A    between atoms: _219  and  _221
REMARK   93  A    between atoms: _221  and  _222
REMARK   94  A    between atoms: _221  and  _224
REMARK   95  A    between atoms: _224  and  _225
REMARK   96  A    between atoms: _225  and  _226
REMARK   97  A    between atoms: _228  and  _230
REMARK   98  A    between atoms: _230  and  _231
REMARK   99  A    between atoms: _230  and  _233
REMARK  100  A    between atoms: _233  and  _234
REMARK  101  A    between atoms: _239  and  _240
REMARK  102  A    between atoms: _242  and  _244
REMARK  103  A    between atoms: _244  and  _245
REMARK  104  A    between atoms: _244  and  _247
REMARK  105  A    between atoms: _247  and  _248
REMARK  106  A    between atoms: _248  and  _249
REMARK  107  A    between atoms: _249  and  _250
REMARK  108  A    between atoms: _250  and  _251
REMARK  109  A    between atoms: _255  and  _257
REMARK  110  A    between atoms: _257  and  _258
REMARK  111  A    between atoms: _257  and  _260
REMARK  112  A    between atoms: _262  and  _264
REMARK  113  A    between atoms: _264  and  _265
REMARK  114  A    between atoms: _264  and  _267
REMARK  115  A    between atoms: _267  and  _268
REMARK  116  A    between atoms: _268  and  _269
REMARK  117  A    between atoms: _272  and  _274
REMARK  118  A    between atoms: _274  and  _275
REMARK  119  A    between atoms: _274  and  _277
REMARK  120  A    between atoms: _277  and  _278
REMARK  121  A    between atoms: _283  and  _285
REMARK  122  A    between atoms: _285  and  _286
REMARK  123  A    between atoms: _289  and  _291
REMARK  124  A    between atoms: _291  and  _292
REMARK  125  A    between atoms: _291  and  _294
REMARK  126  A    between atoms: _294  and  _295
REMARK  127  A    between atoms: _295  and  _296
REMARK  128  A    between atoms: _298  and  _300
REMARK  129  A    between atoms: _300  and  _301
REMARK  130  A    between atoms: _300  and  _303
REMARK  131  A    between atoms: _303  and  _304
REMARK  132  A    between atoms: _314  and  _316
REMARK  133  A    between atoms: _316  and  _317
REMARK  134  A    between atoms: _316  and  _319
REMARK  135  A    between atoms: _319  and  _320
REMARK  136  A    between atoms: _323  and  _325
REMARK  137  A    between atoms: _325  and  _326
REMARK  138  A    between atoms: _325  and  _328
REMARK  139  A    between atoms: _328  and  _329
REMARK  140  A    between atoms: _329  and  _330
REMARK  141  A    between atoms: _335  and  _337
REMARK  142  A    between atoms: _337  and  _338
REMARK  143  A    between atoms: _337  and  _340
REMARK  144  A    between atoms: _340  and  _341
REMARK  145  A    between atoms: _341  and  _342
REMARK  146  A    between atoms: _347  and  _349
REMARK  147  A    between atoms: _349  and  _350
REMARK  148  A    between atoms: _349  and  _352
REMARK  149  A    between atoms: _352  and  _353
REMARK  150  A    between atoms: _359  and  _361
REMARK  151  A    between atoms: _361  and  _362
REMARK  152  A    between atoms: _361  and  _364
REMARK  153  A    between atoms: _366  and  _368
REMARK  154  A    between atoms: _368  and  _369
REMARK  155  A    between atoms: _368  and  _371
REMARK  156  A    between atoms: _371  and  _372
REMARK  157  A    between atoms: _372  and  _373
REMARK  158  A    between atoms: _375  and  _377
REMARK  159  A    between atoms: _377  and  _378
REMARK  160  A    between atoms: _377  and  _380
REMARK  161  A    between atoms: _380  and  _381
REMARK  162  A    between atoms: _381  and  _382
REMARK  163  A    between atoms: _381  and  _383
REMARK  164  A    between atoms: _386  and  _388
REMARK  165  A    between atoms: _388  and  _389
REMARK  166  A    between atoms: _391  and  _393
REMARK  167  A    between atoms: _393  and  _394
REMARK  168  A    between atoms: _393  and  _396
REMARK  169  A    between atoms: _396  and  _397
REMARK  170  A    between atoms: _400  and  _402
REMARK  171  A    between atoms: _402  and  _403
REMARK  172  A    between atoms: _402  and  _405
REMARK  173  A    between atoms: _405  and  _406
REMARK  174  A    between atoms: _409  and  _411
REMARK  175  A    between atoms: _411  and  _412
REMARK  176  A    between atoms: _411  and  _414
REMARK  177  A    between atoms: _414  and  _415
REMARK  178  A    between atoms: _417  and  _419
REMARK  179  A    between atoms: _419  and  _420
REMARK  180  A    between atoms: _419  and  _422
REMARK  181  A    between atoms: _422  and  _423
REMARK  182  A    between atoms: _433  and  _435
REMARK  183  A    between atoms: _435  and  _436
REMARK  184  A    between atoms: _435  and  _438
REMARK  185  A    between atoms: _438  and  _439
REMARK  186  A    between atoms: _439  and  _440
REMARK                            x       y       z     vdW  Elec       q    Type
REMARK                         _______ _______ _______ _____ _____    ______ ____
ROOT
ATOM      1  O   HOH     1      -7.872 -32.115 -26.367  0.00  0.00    +0.000 OA
ENDROOT
TORSDOF 0
REMARK  Name = ../refined-set-2016/3t2q/3t2q_pocket.pdb
REMARK  186 active torsions:
REMARK  status: ('A' for Active; 'I' for Inactive)
REMARK    1  A    between atoms: _1  and  _3
REMARK    2  A    between atoms: _3  and  _4
REMARK    3  A    between atoms: _3  and  _6
REMARK    4  A    between atoms: _6  and  _7
REMARK    5  A    between atoms: _12  and  _13
REMARK    6  A    between atoms: _15  and  _17
REMARK    7  A    between atoms: _17  and  _18
REMARK    8  A    between atoms: _17  and  _20
REMARK    9  A    between atoms: _20  and  _21
REMARK   10  A    between atoms: _24  and  _26
REMARK   11  A    between atoms: _26  and  _27
REMARK   12  A    between atoms: _26  and  _29
REMARK   13  A    between atoms: _29  and  _30
REMARK   14  A    between atoms: _35  and  _37
REMARK   15  A    between atoms: _37  and  _38
REMARK   16  A    between atoms: _37  and  _40
REMARK   17  A    between atoms: _43  and  _45
REMARK   18  A    between atoms: _45  and  _46
REMARK   19  A    between atoms: _45  and  _48
REMARK   20  A    between atoms: _48  and  _49
REMARK   21  A    between atoms: _52  and  _54
REMARK   22  A    between atoms: _54  and  _55
REMARK   23  A    between atoms: _54  and  _57
REMARK   24  A    between atoms: _57  and  _58
REMARK   25  A    between atoms: _58  and  _59
REMARK   26  A    between atoms: _64  and  _66
REMARK   27  A    between atoms: _66  and  _67
REMARK   28  A    between atoms: _66  and  _69
REMARK   29  A    between atoms: _69  and  _70
REMARK   30  A    between atoms: _73  and  _75
REMARK   31  A    between atoms: _75  and  _76
REMARK   32  A    between atoms: _75  and  _78
REMARK   33  A    between atoms: _78  and  _79
REMARK   34  A    between atoms: _79  and  _80
REMARK   35  A    between atoms: _82  and  _84
REMARK   36  A    between atoms: _84  and  _85
REMARK   37  A    between atoms: _84  and  _87
REMARK   38  A    between atoms: _87  and  _88
REMARK   39  A    between atoms: _88  and  _89
REMARK   40  A    between atoms: _89  and  _90
REMARK   41  A    between atoms: _99  and  _101
REMARK   42  A    between atoms: _101  and  _102
REMARK   43  A    between atoms: _101  and  _104
REMARK   44  A    between atoms: _104  and  _105
REMARK   45  A    between atoms: _110  and  _112
REMARK   46  A    between atoms: _112  and  _113
REMARK   47  A    between atoms: _112  and  _115
REMARK   48  A    between atoms: _115  and  _116
REMARK   49  A    between atoms: _121  and  _123
REMARK   50  A    between atoms: _123  and  _124
REMARK   51  A    between atoms: _123  and  _126
REMARK   52  A    between atoms: _126  and  _127
REMARK   53  A    between atoms: _127  and  _128
REMARK   54  A    between atoms: _128  and  _129
REMARK   55  A    between atoms: _138  and  _140
REMARK   56  A    between atoms: _140  and  _141
REMARK   57  A    between atoms: _140  and  _143
REMARK   58  A    between atoms: _143  and  _144
REMARK   59  A    between atoms: _146  and  _148
REMARK   60  A    between atoms: _148  and  _149
REMARK   61  A    between atoms: _148  and  _151
REMARK   62  A    between atoms: _151  and  _152
REMARK   63  A    between atoms: _157  and  _159
REMARK   64  A    between atoms: _159  and  _160
REMARK   65  A    between atoms: _159  and  _162
REMARK   66  A    between atoms: _162  and  _163
REMARK   67  A    between atoms: _163  and  _164
REMARK   68  A    between atoms: _167  and  _169
REMARK   69  A    between atoms: _169  and  _170
REMARK   70  A    between atoms: _169  and  _172
REMARK   71  A    between atoms: _172  and  _173
REMARK   72  A    between atoms: _173  and  _174
REMARK   73  A    between atoms: _177  and  _179
REMARK   74  A    between atoms: _179  and  _180
REMARK   75  A    between atoms: _179  and  _182
REMARK   76  A    between atoms: _182  and  _183
REMARK   77  A    between atoms: _184  and  MG_443
REMARK   78  A    between atoms: _188  and  _190
REMARK   79  A    between atoms: _190  and  _191
REMARK   80  A    between atoms: _190  and  _193
REMARK   81  A    between atoms: _193  and  _194
REMARK   82  A    between atoms: _199  and  _201
REMARK   83  A    between atoms: _201  and  _202
REMARK   84  A    between atoms: _201  and  _204
REMARK   85  A    between atoms: _204  and  _205
REMARK   86  A    between atoms: _205  and  _206
REMARK   87  A    between atoms: _209  and  _211
REMARK   88  A    between atoms: _211  and  _212
REMARK   89  A    between atoms: _211  and  _214
REMARK   90  A    between atoms: _214  and  _215
REMARK   91  A    between atoms: _215  and  _216
REMARK   92  A    between atoms: _219  and  _221
REMARK   93  A    between atoms: _221  and  _222
REMARK   94  A    between atoms: _221  and  _224
REMARK   95  A    between atoms: _224  and  _225
REMARK   96  A    between atoms: _225  and  _226
REMARK   97  A    between atoms: _228  and  _230
REMARK   98  A    between atoms: _230  and  _231
REMARK   99  A    between atoms: _230  and  _233
REMARK  100  A    between atoms: _233  and  _234
REMARK  101  A    between atoms: _239  and  _240
REMARK  102  A    between atoms: _242  and  _244
REMARK  103  A    between atoms: _244  and  _245
REMARK  104  A    between atoms: _244  and  _247
REMARK  105  A    between atoms: _247  and  _248
REMARK  106  A    between atoms: _248  and  _249
REMARK  107  A    between atoms: _249  and  _250
REMARK  108  A    between atoms: _250  and  _251
REMARK  109  A    between atoms: _255  and  _257
REMARK  110  A    between atoms: _257  and  _258
REMARK  111  A    between atoms: _257  and  _260
REMARK  112  A    between atoms: _262  and  _264
REMARK  113  A    between atoms: _264  and  _265
REMARK  114  A    between atoms: _264  and  _267
REMARK  115  A    between atoms: _267  and  _268
REMARK  116  A    between atoms: _268  and  _269
REMARK  117  A    between atoms: _272  and  _274
REMARK  118  A    between atoms: _274  and  _275
REMARK  119  A    between atoms: _274  and  _277
REMARK  120  A    between atoms: _277  and  _278
REMARK  121  A    between atoms: _283  and  _285
REMARK  122  A    between atoms: _285  and  _286
REMARK  123  A    between atoms: _289  and  _291
REMARK  124  A    between atoms: _291  and  _292
REMARK  125  A    between atoms: _291  and  _294
REMARK  126  A    between atoms: _294  and  _295
REMARK  127  A    between atoms: _295  and  _296
REMARK  128  A    between atoms: _298  and  _300
REMARK  129  A    between atoms: _300  and  _301
REMARK  130  A    between atoms: _300  and  _303
REMARK  131  A    between atoms: _303  and  _304
REMARK  132  A    between atoms: _314  and  _316
REMARK  133  A    between atoms: _316  and  _317
REMARK  134  A    between atoms: _316  and  _319
REMARK  135  A    between atoms: _319  and  _320
REMARK  136  A    between atoms: _323  and  _325
REMARK  137  A    between atoms: _325  and  _326
REMARK  138  A    between atoms: _325  and  _328
REMARK  139  A    between atoms: _328  and  _329
REMARK  140  A    between atoms: _329  and  _330
REMARK  141  A    between atoms: _335  and  _337
REMARK  142  A    between atoms: _337  and  _338
REMARK  143  A    between atoms: _337  and  _340
REMARK  144  A    between atoms: _340  and  _341
REMARK  145  A    between atoms: _341  and  _342
REMARK  146  A    between atoms: _347  and  _349
REMARK  147  A    between atoms: _349  and  _350
REMARK  148  A    between atoms: _349  and  _352
REMARK  149  A    between atoms: _352  and  _353
REMARK  150  A    between atoms: _359  and  _361
REMARK  151  A    between atoms: _361  and  _362
REMARK  152  A    between atoms: _361  and  _364
REMARK  153  A    between atoms: _366  and  _368
REMARK  154  A    between atoms: _368  and  _369
REMARK  155  A    between atoms: _368  and  _371
REMARK  156  A    between atoms: _371  and  _372
REMARK  157  A    between atoms: _372  and  _373
REMARK  158  A    between atoms: _375  and  _377
REMARK  159  A    between atoms: _377  and  _378
REMARK  160  A    between atoms: _377  and  _380
REMARK  161  A    between atoms: _380  and  _381
REMARK  162  A    between atoms: _381  and  _382
REMARK  163  A    between atoms: _381  and  _383
REMARK  164  A    between atoms: _386  and  _388
REMARK  165  A    between atoms: _388  and  _389
REMARK  166  A    between atoms: _391  and  _393
REMARK  167  A    between atoms: _393  and  _394
REMARK  168  A    between atoms: _393  and  _396
REMARK  169  A    between atoms: _396  and  _397
REMARK  170  A    between atoms: _400  and  _402
REMARK  171  A    between atoms: _402  and  _403
REMARK  172  A    between atoms: _402  and  _405
REMARK  173  A    between atoms: _405  and  _406
REMARK  174  A    between atoms: _409  and  _411
REMARK  175  A    between atoms: _411  and  _412
REMARK  176  A    between atoms: _411  and  _414
REMARK  177  A    between atoms: _414  and  _415
REMARK  178  A    between atoms: _417  and  _419
REMARK  179  A    between atoms: _419  and  _420
REMARK  180  A    between atoms: _419  and  _422
REMARK  181  A    between atoms: _422  and  _423
REMARK  182  A    between atoms: _433  and  _435
REMARK  183  A    between atoms: _435  and  _436
REMARK  184  A    between atoms: _435  and  _438
REMARK  185  A    between atoms: _438  and  _439
REMARK  186  A    between atoms: _439  and  _440
REMARK                            x       y       z     vdW  Elec       q    Type
REMARK                         _______ _______ _______ _____ _____    ______ ____
ROOT
ATOM      1  O   HOH     1      -7.321 -31.005 -34.626  0.00  0.00    +0.000 OA
ENDROOT
TORSDOF 0
REMARK  Name = ../refined-set-2016/3t2q/3t2q_pocket.pdb
REMARK  186 active torsions:
REMARK  status: ('A' for Active; 'I' for Inactive)
REMARK    1  A    between atoms: _1  and  _3
REMARK    2  A    between atoms: _3  and  _4
REMARK    3  A    between atoms: _3  and  _6
REMARK    4  A    between atoms: _6  and  _7
REMARK    5  A    between atoms: _12  and  _13
REMARK    6  A    between atoms: _15  and  _17
REMARK    7  A    between atoms: _17  and  _18
REMARK    8  A    between atoms: _17  and  _20
REMARK    9  A    between atoms: _20  and  _21
REMARK   10  A    between atoms: _24  and  _26
REMARK   11  A    between atoms: _26  and  _27
REMARK   12  A    between atoms: _26  and  _29
REMARK   13  A    between atoms: _29  and  _30
REMARK   14  A    between atoms: _35  and  _37
REMARK   15  A    between atoms: _37  and  _38
REMARK   16  A    between atoms: _37  and  _40
REMARK   17  A    between atoms: _43  and  _45
REMARK   18  A    between atoms: _45  and  _46
REMARK   19  A    between atoms: _45  and  _48
REMARK   20  A    between atoms: _48  and  _49
REMARK   21  A    between atoms: _52  and  _54
REMARK   22  A    between atoms: _54  and  _55
REMARK   23  A    between atoms: _54  and  _57
REMARK   24  A    between atoms: _57  and  _58
REMARK   25  A    between atoms: _58  and  _59
REMARK   26  A    between atoms: _64  and  _66
REMARK   27  A    between atoms: _66  and  _67
REMARK   28  A    between atoms: _66  and  _69
REMARK   29  A    between atoms: _69  and  _70
REMARK   30  A    between atoms: _73  and  _75
REMARK   31  A    between atoms: _75  and  _76
REMARK   32  A    between atoms: _75  and  _78
REMARK   33  A    between atoms: _78  and  _79
REMARK   34  A    between atoms: _79  and  _80
REMARK   35  A    between atoms: _82  and  _84
REMARK   36  A    between atoms: _84  and  _85
REMARK   37  A    between atoms: _84  and  _87
REMARK   38  A    between atoms: _87  and  _88
REMARK   39  A    between atoms: _88  and  _89
REMARK   40  A    between atoms: _89  and  _90
REMARK   41  A    between atoms: _99  and  _101
REMARK   42  A    between atoms: _101  and  _102
REMARK   43  A    between atoms: _101  and  _104
REMARK   44  A    between atoms: _104  and  _105
REMARK   45  A    between atoms: _110  and  _112
REMARK   46  A    between atoms: _112  and  _113
REMARK   47  A    between atoms: _112  and  _115
REMARK   48  A    between atoms: _115  and  _116
REMARK   49  A    between atoms: _121  and  _123
REMARK   50  A    between atoms: _123  and  _124
REMARK   51  A    between atoms: _123  and  _126
REMARK   52  A    between atoms: _126  and  _127
REMARK   53  A    between atoms: _127  and  _128
REMARK   54  A    between atoms: _128  and  _129
REMARK   55  A    between atoms: _138  and  _140
REMARK   56  A    between atoms: _140  and  _141
REMARK   57  A    between atoms: _140  and  _143
REMARK   58  A    between atoms: _143  and  _144
REMARK   59  A    between atoms: _146  and  _148
REMARK   60  A    between atoms: _148  and  _149
REMARK   61  A    between atoms: _148  and  _151
REMARK   62  A    between atoms: _151  and  _152
REMARK   63  A    between atoms: _157  and  _159
REMARK   64  A    between atoms: _159  and  _160
REMARK   65  A    between atoms: _159  and  _162
REMARK   66  A    between atoms: _162  and  _163
REMARK   67  A    between atoms: _163  and  _164
REMARK   68  A    between atoms: _167  and  _169
REMARK   69  A    between atoms: _169  and  _170
REMARK   70  A    between atoms: _169  and  _172
REMARK   71  A    between atoms: _172  and  _173
REMARK   72  A    between atoms: _173  and  _174
REMARK   73  A    between atoms: _177  and  _179
REMARK   74  A    between atoms: _179  and  _180
REMARK   75  A    between atoms: _179  and  _182
REMARK   76  A    between atoms: _182  and  _183
REMARK   77  A    between atoms: _184  and  MG_443
REMARK   78  A    between atoms: _188  and  _190
REMARK   79  A    between atoms: _190  and  _191
REMARK   80  A    between atoms: _190  and  _193
REMARK   81  A    between atoms: _193  and  _194
REMARK   82  A    between atoms: _199  and  _201
REMARK   83  A    between atoms: _201  and  _202
REMARK   84  A    between atoms: _201  and  _204
REMARK   85  A    between atoms: _204  and  _205
REMARK   86  A    between atoms: _205  and  _206
REMARK   87  A    between atoms: _209  and  _211
REMARK   88  A    between atoms: _211  and  _212
REMARK   89  A    between atoms: _211  and  _214
REMARK   90  A    between atoms: _214  and  _215
REMARK   91  A    between atoms: _215  and  _216
REMARK   92  A    between atoms: _219  and  _221
REMARK   93  A    between atoms: _221  and  _222
REMARK   94  A    between atoms: _221  and  _224
REMARK   95  A    between atoms: _224  and  _225
REMARK   96  A    between atoms: _225  and  _226
REMARK   97  A    between atoms: _228  and  _230
REMARK   98  A    between atoms: _230  and  _231
REMARK   99  A    between atoms: _230  and  _233
REMARK  100  A    between atoms: _233  and  _234
REMARK  101  A    between atoms: _239  and  _240
REMARK  102  A    between atoms: _242  and  _244
REMARK  103  A    between atoms: _244  and  _245
REMARK  104  A    between atoms: _244  and  _247
REMARK  105  A    between atoms: _247  and  _248
REMARK  106  A    between atoms: _248  and  _249
REMARK  107  A    between atoms: _249  and  _250
REMARK  108  A    between atoms: _250  and  _251
REMARK  109  A    between atoms: _255  and  _257
REMARK  110  A    between atoms: _257  and  _258
REMARK  111  A    between atoms: _257  and  _260
REMARK  112  A    between atoms: _262  and  _264
REMARK  113  A    between atoms: _264  and  _265
REMARK  114  A    between atoms: _264  and  _267
REMARK  115  A    between atoms: _267  and  _268
REMARK  116  A    between atoms: _268  and  _269
REMARK  117  A    between atoms: _272  and  _274
REMARK  118  A    between atoms: _274  and  _275
REMARK  119  A    between atoms: _274  and  _277
REMARK  120  A    between atoms: _277  and  _278
REMARK  121  A    between atoms: _283  and  _285
REMARK  122  A    between atoms: _285  and  _286
REMARK  123  A    between atoms: _289  and  _291
REMARK  124  A    between atoms: _291  and  _292
REMARK  125  A    between atoms: _291  and  _294
REMARK  126  A    between atoms: _294  and  _295
REMARK  127  A    between atoms: _295  and  _296
REMARK  128  A    between atoms: _298  and  _300
REMARK  129  A    between atoms: _300  and  _301
REMARK  130  A    between atoms: _300  and  _303
REMARK  131  A    between atoms: _303  and  _304
REMARK  132  A    between atoms: _314  and  _316
REMARK  133  A    between atoms: _316  and  _317
REMARK  134  A    between atoms: _316  and  _319
REMARK  135  A    between atoms: _319  and  _320
REMARK  136  A    between atoms: _323  and  _325
REMARK  137  A    between atoms: _325  and  _326
REMARK  138  A    between atoms: _325  and  _328
REMARK  139  A    between atoms: _328  and  _329
REMARK  140  A    between atoms: _329  and  _330
REMARK  141  A    between atoms: _335  and  _337
REMARK  142  A    between atoms: _337  and  _338
REMARK  143  A    between atoms: _337  and  _340
REMARK  144  A    between atoms: _340  and  _341
REMARK  145  A    between atoms: _341  and  _342
REMARK  146  A    between atoms: _347  and  _349
REMARK  147  A    between atoms: _349  and  _350
REMARK  148  A    between atoms: _349  and  _352
REMARK  149  A    between atoms: _352  and  _353
REMARK  150  A    between atoms: _359  and  _361
REMARK  151  A    between atoms: _361  and  _362
REMARK  152  A    between atoms: _361  and  _364
REMARK  153  A    between atoms: _366  and  _368
REMARK  154  A    between atoms: _368  and  _369
REMARK  155  A    between atoms: _368  and  _371
REMARK  156  A    between atoms: _371  and  _372
REMARK  157  A    between atoms: _372  and  _373
REMARK  158  A    between atoms: _375  and  _377
REMARK  159  A    between atoms: _377  and  _378
REMARK  160  A    between atoms: _377  and  _380
REMARK  161  A    between atoms: _380  and  _381
REMARK  162  A    between atoms: _381  and  _382
REMARK  163  A    between atoms: _381  and  _383
REMARK  164  A    between atoms: _386  and  _388
REMARK  165  A    between atoms: _388  and  _389
REMARK  166  A    between atoms: _391  and  _393
REMARK  167  A    between atoms: _393  and  _394
REMARK  168  A    between atoms: _393  and  _396
REMARK  169  A    between atoms: _396  and  _397
REMARK  170  A    between atoms: _400  and  _402
REMARK  171  A    between atoms: _402  and  _403
REMARK  172  A    between atoms: _402  and  _405
REMARK  173  A    between atoms: _405  and  _406
REMARK  174  A    between atoms: _409  and  _411
REMARK  175  A    between atoms: _411  and  _412
REMARK  176  A    between atoms: _411  and  _414
REMARK  177  A    between atoms: _414  and  _415
REMARK  178  A    between atoms: _417  and  _419
REMARK  179  A    between atoms: _419  and  _420
REMARK  180  A    between atoms: _419  and  _422
REMARK  181  A    between atoms: _422  and  _423
REMARK  182  A    between atoms: _433  and  _435
REMARK  183  A    between atoms: _435  and  _436
REMARK  184  A    between atoms: _435  and  _438
REMARK  185  A    between atoms: _438  and  _439
REMARK  186  A    between atoms: _439  and  _440
REMARK                            x       y       z     vdW  Elec       q    Type
REMARK                         _______ _______ _______ _____ _____    ______ ____
ROOT
ATOM      1  O   HOH     1      -9.156 -32.160 -30.003  0.00  0.00    +0.000 OA
ENDROOT
TORSDOF 0
REMARK  Name = ../refined-set-2016/3t2q/3t2q_pocket.pdb
REMARK  186 active torsions:
REMARK  status: ('A' for Active; 'I' for Inactive)
REMARK    1  A    between atoms: _1  and  _3
REMARK    2  A    between atoms: _3  and  _4
REMARK    3  A    between atoms: _3  and  _6
REMARK    4  A    between atoms: _6  and  _7
REMARK    5  A    between atoms: _12  and  _13
REMARK    6  A    between atoms: _15  and  _17
REMARK    7  A    between atoms: _17  and  _18
REMARK    8  A    between atoms: _17  and  _20
REMARK    9  A    between atoms: _20  and  _21
REMARK   10  A    between atoms: _24  and  _26
REMARK   11  A    between atoms: _26  and  _27
REMARK   12  A    between atoms: _26  and  _29
REMARK   13  A    between atoms: _29  and  _30
REMARK   14  A    between atoms: _35  and  _37
REMARK   15  A    between atoms: _37  and  _38
REMARK   16  A    between atoms: _37  and  _40
REMARK   17  A    between atoms: _43  and  _45
REMARK   18  A    between atoms: _45  and  _46
REMARK   19  A    between atoms: _45  and  _48
REMARK   20  A    between atoms: _48  and  _49
REMARK   21  A    between atoms: _52  and  _54
REMARK   22  A    between atoms: _54  and  _55
REMARK   23  A    between atoms: _54  and  _57
REMARK   24  A    between atoms: _57  and  _58
REMARK   25  A    between atoms: _58  and  _59
REMARK   26  A    between atoms: _64  and  _66
REMARK   27  A    between atoms: _66  and  _67
REMARK   28  A    between atoms: _66  and  _69
REMARK   29  A    between atoms: _69  and  _70
REMARK   30  A    between atoms: _73  and  _75
REMARK   31  A    between atoms: _75  and  _76
REMARK   32  A    between atoms: _75  and  _78
REMARK   33  A    between atoms: _78  and  _79
REMARK   34  A    between atoms: _79  and  _80
REMARK   35  A    between atoms: _82  and  _84
REMARK   36  A    between atoms: _84  and  _85
REMARK   37  A    between atoms: _84  and  _87
REMARK   38  A    between atoms: _87  and  _88
REMARK   39  A    between atoms: _88  and  _89
REMARK   40  A    between atoms: _89  and  _90
REMARK   41  A    between atoms: _99  and  _101
REMARK   42  A    between atoms: _101  and  _102
REMARK   43  A    between atoms: _101  and  _104
REMARK   44  A    between atoms: _104  and  _105
REMARK   45  A    between atoms: _110  and  _112
REMARK   46  A    between atoms: _112  and  _113
REMARK   47  A    between atoms: _112  and  _115
REMARK   48  A    between atoms: _115  and  _116
REMARK   49  A    between atoms: _121  and  _123
REMARK   50  A    between atoms: _123  and  _124
REMARK   51  A    between atoms: _123  and  _126
REMARK   52  A    between atoms: _126  and  _127
REMARK   53  A    between atoms: _127  and  _128
REMARK   54  A    between atoms: _128  and  _129
REMARK   55  A    between atoms: _138  and  _140
REMARK   56  A    between atoms: _140  and  _141
REMARK   57  A    between atoms: _140  and  _143
REMARK   58  A    between atoms: _143  and  _144
REMARK   59  A    between atoms: _146  and  _148
REMARK   60  A    between atoms: _148  and  _149
REMARK   61  A    between atoms: _148  and  _151
REMARK   62  A    between atoms: _151  and  _152
REMARK   63  A    between atoms: _157  and  _159
REMARK   64  A    between atoms: _159  and  _160
REMARK   65  A    between atoms: _159  and  _162
REMARK   66  A    between atoms: _162  and  _163
REMARK   67  A    between atoms: _163  and  _164
REMARK   68  A    between atoms: _167  and  _169
REMARK   69  A    between atoms: _169  and  _170
REMARK   70  A    between atoms: _169  and  _172
REMARK   71  A    between atoms: _172  and  _173
REMARK   72  A    between atoms: _173  and  _174
REMARK   73  A    between atoms: _177  and  _179
REMARK   74  A    between atoms: _179  and  _180
REMARK   75  A    between atoms: _179  and  _182
REMARK   76  A    between atoms: _182  and  _183
REMARK   77  A    between atoms: _184  and  MG_443
REMARK   78  A    between atoms: _188  and  _190
REMARK   79  A    between atoms: _190  and  _191
REMARK   80  A    between atoms: _190  and  _193
REMARK   81  A    between atoms: _193  and  _194
REMARK   82  A    between atoms: _199  and  _201
REMARK   83  A    between atoms: _201  and  _202
REMARK   84  A    between atoms: _201  and  _204
REMARK   85  A    between atoms: _204  and  _205
REMARK   86  A    between atoms: _205  and  _206
REMARK   87  A    between atoms: _209  and  _211
REMARK   88  A    between atoms: _211  and  _212
REMARK   89  A    between atoms: _211  and  _214
REMARK   90  A    between atoms: _214  and  _215
REMARK   91  A    between atoms: _215  and  _216
REMARK   92  A    between atoms: _219  and  _221
REMARK   93  A    between atoms: _221  and  _222
REMARK   94  A    between atoms: _221  and  _224
REMARK   95  A    between atoms: _224  and  _225
REMARK   96  A    between atoms: _225  and  _226
REMARK   97  A    between atoms: _228  and  _230
REMARK   98  A    between atoms: _230  and  _231
REMARK   99  A    between atoms: _230  and  _233
REMARK  100  A    between atoms: _233  and  _234
REMARK  101  A    between atoms: _239  and  _240
REMARK  102  A    between atoms: _242  and  _244
REMARK  103  A    between atoms: _244  and  _245
REMARK  104  A    between atoms: _244  and  _247
REMARK  105  A    between atoms: _247  and  _248
REMARK  106  A    between atoms: _248  and  _249
REMARK  107  A    between atoms: _249  and  _250
REMARK  108  A    between atoms: _250  and  _251
REMARK  109  A    between atoms: _255  and  _257
REMARK  110  A    between atoms: _257  and  _258
REMARK  111  A    between atoms: _257  and  _260
REMARK  112  A    between atoms: _262  and  _264
REMARK  113  A    between atoms: _264  and  _265
REMARK  114  A    between atoms: _264  and  _267
REMARK  115  A    between atoms: _267  and  _268
REMARK  116  A    between atoms: _268  and  _269
REMARK  117  A    between atoms: _272  and  _274
REMARK  118  A    between atoms: _274  and  _275
REMARK  119  A    between atoms: _274  and  _277
REMARK  120  A    between atoms: _277  and  _278
REMARK  121  A    between atoms: _283  and  _285
REMARK  122  A    between atoms: _285  and  _286
REMARK  123  A    between atoms: _289  and  _291
REMARK  124  A    between atoms: _291  and  _292
REMARK  125  A    between atoms: _291  and  _294
REMARK  126  A    between atoms: _294  and  _295
REMARK  127  A    between atoms: _295  and  _296
REMARK  128  A    between atoms: _298  and  _300
REMARK  129  A    between atoms: _300  and  _301
REMARK  130  A    between atoms: _300  and  _303
REMARK  131  A    between atoms: _303  and  _304
REMARK  132  A    between atoms: _314  and  _316
REMARK  133  A    between atoms: _316  and  _317
REMARK  134  A    between atoms: _316  and  _319
REMARK  135  A    between atoms: _319  and  _320
REMARK  136  A    between atoms: _323  and  _325
REMARK  137  A    between atoms: _325  and  _326
REMARK  138  A    between atoms: _325  and  _328
REMARK  139  A    between atoms: _328  and  _329
REMARK  140  A    between atoms: _329  and  _330
REMARK  141  A    between atoms: _335  and  _337
REMARK  142  A    between atoms: _337  and  _338
REMARK  143  A    between atoms: _337  and  _340
REMARK  144  A    between atoms: _340  and  _341
REMARK  145  A    between atoms: _341  and  _342
REMARK  146  A    between atoms: _347  and  _349
REMARK  147  A    between atoms: _349  and  _350
REMARK  148  A    between atoms: _349  and  _352
REMARK  149  A    between atoms: _352  and  _353
REMARK  150  A    between atoms: _359  and  _361
REMARK  151  A    between atoms: _361  and  _362
REMARK  152  A    between atoms: _361  and  _364
REMARK  153  A    between atoms: _366  and  _368
REMARK  154  A    between atoms: _368  and  _369
REMARK  155  A    between atoms: _368  and  _371
REMARK  156  A    between atoms: _371  and  _372
REMARK  157  A    between atoms: _372  and  _373
REMARK  158  A    between atoms: _375  and  _377
REMARK  159  A    between atoms: _377  and  _378
REMARK  160  A    between atoms: _377  and  _380
REMARK  161  A    between atoms: _380  and  _381
REMARK  162  A    between atoms: _381  and  _382
REMARK  163  A    between atoms: _381  and  _383
REMARK  164  A    between atoms: _386  and  _388
REMARK  165  A    between atoms: _388  and  _389
REMARK  166  A    between atoms: _391  and  _393
REMARK  167  A    between atoms: _393  and  _394
REMARK  168  A    between atoms: _393  and  _396
REMARK  169  A    between atoms: _396  and  _397
REMARK  170  A    between atoms: _400  and  _402
REMARK  171  A    between atoms: _402  and  _403
REMARK  172  A    between atoms: _402  and  _405
REMARK  173  A    between atoms: _405  and  _406
REMARK  174  A    between atoms: _409  and  _411
REMARK  175  A    between atoms: _411  and  _412
REMARK  176  A    between atoms: _411  and  _414
REMARK  177  A    between atoms: _414  and  _415
REMARK  178  A    between atoms: _417  and  _419
REMARK  179  A    between atoms: _419  and  _420
REMARK  180  A    between atoms: _419  and  _422
REMARK  181  A    between atoms: _422  and  _423
REMARK  182  A    between atoms: _433  and  _435
REMARK  183  A    between atoms: _435  and  _436
REMARK  184  A    between atoms: _435  and  _438
REMARK  185  A    between atoms: _438  and  _439
REMARK  186  A    between atoms: _439  and  _440
REMARK                            x       y       z     vdW  Elec       q    Type
REMARK                         _______ _______ _______ _____ _____    ______ ____
ROOT
ATOM      1  O   HOH     1     -10.102 -31.430 -23.772  0.00  0.00    +0.000 OA
ENDROOT
TORSDOF 0
REMARK  Name = ../refined-set-2016/3t2q/3t2q_pocket.pdb
REMARK  186 active torsions:
REMARK  status: ('A' for Active; 'I' for Inactive)
REMARK    1  A    between atoms: _1  and  _3
REMARK    2  A    between atoms: _3  and  _4
REMARK    3  A    between atoms: _3  and  _6
REMARK    4  A    between atoms: _6  and  _7
REMARK    5  A    between atoms: _12  and  _13
REMARK    6  A    between atoms: _15  and  _17
REMARK    7  A    between atoms: _17  and  _18
REMARK    8  A    between atoms: _17  and  _20
REMARK    9  A    between atoms: _20  and  _21
REMARK   10  A    between atoms: _24  and  _26
REMARK   11  A    between atoms: _26  and  _27
REMARK   12  A    between atoms: _26  and  _29
REMARK   13  A    between atoms: _29  and  _30
REMARK   14  A    between atoms: _35  and  _37
REMARK   15  A    between atoms: _37  and  _38
REMARK   16  A    between atoms: _37  and  _40
REMARK   17  A    between atoms: _43  and  _45
REMARK   18  A    between atoms: _45  and  _46
REMARK   19  A    between atoms: _45  and  _48
REMARK   20  A    between atoms: _48  and  _49
REMARK   21  A    between atoms: _52  and  _54
REMARK   22  A    between atoms: _54  and  _55
REMARK   23  A    between atoms: _54  and  _57
REMARK   24  A    between atoms: _57  and  _58
REMARK   25  A    between atoms: _58  and  _59
REMARK   26  A    between atoms: _64  and  _66
REMARK   27  A    between atoms: _66  and  _67
REMARK   28  A    between atoms: _66  and  _69
REMARK   29  A    between atoms: _69  and  _70
REMARK   30  A    between atoms: _73  and  _75
REMARK   31  A    between atoms: _75  and  _76
REMARK   32  A    between atoms: _75  and  _78
REMARK   33  A    between atoms: _78  and  _79
REMARK   34  A    between atoms: _79  and  _80
REMARK   35  A    between atoms: _82  and  _84
REMARK   36  A    between atoms: _84  and  _85
REMARK   37  A    between atoms: _84  and  _87
REMARK   38  A    between atoms: _87  and  _88
REMARK   39  A    between atoms: _88  and  _89
REMARK   40  A    between atoms: _89  and  _90
REMARK   41  A    between atoms: _99  and  _101
REMARK   42  A    between atoms: _101  and  _102
REMARK   43  A    between atoms: _101  and  _104
REMARK   44  A    between atoms: _104  and  _105
REMARK   45  A    between atoms: _110  and  _112
REMARK   46  A    between atoms: _112  and  _113
REMARK   47  A    between atoms: _112  and  _115
REMARK   48  A    between atoms: _115  and  _116
REMARK   49  A    between atoms: _121  and  _123
REMARK   50  A    between atoms: _123  and  _124
REMARK   51  A    between atoms: _123  and  _126
REMARK   52  A    between atoms: _126  and  _127
REMARK   53  A    between atoms: _127  and  _128
REMARK   54  A    between atoms: _128  and  _129
REMARK   55  A    between atoms: _138  and  _140
REMARK   56  A    between atoms: _140  and  _141
REMARK   57  A    between atoms: _140  and  _143
REMARK   58  A    between atoms: _143  and  _144
REMARK   59  A    between atoms: _146  and  _148
REMARK   60  A    between atoms: _148  and  _149
REMARK   61  A    between atoms: _148  and  _151
REMARK   62  A    between atoms: _151  and  _152
REMARK   63  A    between atoms: _157  and  _159
REMARK   64  A    between atoms: _159  and  _160
REMARK   65  A    between atoms: _159  and  _162
REMARK   66  A    between atoms: _162  and  _163
REMARK   67  A    between atoms: _163  and  _164
REMARK   68  A    between atoms: _167  and  _169
REMARK   69  A    between atoms: _169  and  _170
REMARK   70  A    between atoms: _169  and  _172
REMARK   71  A    between atoms: _172  and  _173
REMARK   72  A    between atoms: _173  and  _174
REMARK   73  A    between atoms: _177  and  _179
REMARK   74  A    between atoms: _179  and  _180
REMARK   75  A    between atoms: _179  and  _182
REMARK   76  A    between atoms: _182  and  _183
REMARK   77  A    between atoms: _184  and  MG_443
REMARK   78  A    between atoms: _188  and  _190
REMARK   79  A    between atoms: _190  and  _191
REMARK   80  A    between atoms: _190  and  _193
REMARK   81  A    between atoms: _193  and  _194
REMARK   82  A    between atoms: _199  and  _201
REMARK   83  A    between atoms: _201  and  _202
REMARK   84  A    between atoms: _201  and  _204
REMARK   85  A    between atoms: _204  and  _205
REMARK   86  A    between atoms: _205  and  _206
REMARK   87  A    between atoms: _209  and  _211
REMARK   88  A    between atoms: _211  and  _212
REMARK   89  A    between atoms: _211  and  _214
REMARK   90  A    between atoms: _214  and  _215
REMARK   91  A    between atoms: _215  and  _216
REMARK   92  A    between atoms: _219  and  _221
REMARK   93  A    between atoms: _221  and  _222
REMARK   94  A    between atoms: _221  and  _224
REMARK   95  A    between atoms: _224  and  _225
REMARK   96  A    between atoms: _225  and  _226
REMARK   97  A    between atoms: _228  and  _230
REMARK   98  A    between atoms: _230  and  _231
REMARK   99  A    between atoms: _230  and  _233
REMARK  100  A    between atoms: _233  and  _234
REMARK  101  A    between atoms: _239  and  _240
REMARK  102  A    between atoms: _242  and  _244
REMARK  103  A    between atoms: _244  and  _245
REMARK  104  A    between atoms: _244  and  _247
REMARK  105  A    between atoms: _247  and  _248
REMARK  106  A    between atoms: _248  and  _249
REMARK  107  A    between atoms: _249  and  _250
REMARK  108  A    between atoms: _250  and  _251
REMARK  109  A    between atoms: _255  and  _257
REMARK  110  A    between atoms: _257  and  _258
REMARK  111  A    between atoms: _257  and  _260
REMARK  112  A    between atoms: _262  and  _264
REMARK  113  A    between atoms: _264  and  _265
REMARK  114  A    between atoms: _264  and  _267
REMARK  115  A    between atoms: _267  and  _268
REMARK  116  A    between atoms: _268  and  _269
REMARK  117  A    between atoms: _272  and  _274
REMARK  118  A    between atoms: _274  and  _275
REMARK  119  A    between atoms: _274  and  _277
REMARK  120  A    between atoms: _277  and  _278
REMARK  121  A    between atoms: _283  and  _285
REMARK  122  A    between atoms: _285  and  _286
REMARK  123  A    between atoms: _289  and  _291
REMARK  124  A    between atoms: _291  and  _292
REMARK  125  A    between atoms: _291  and  _294
REMARK  126  A    between atoms: _294  and  _295
REMARK  127  A    between atoms: _295  and  _296
REMARK  128  A    between atoms: _298  and  _300
REMARK  129  A    between atoms: _300  and  _301
REMARK  130  A    between atoms: _300  and  _303
REMARK  131  A    between atoms: _303  and  _304
REMARK  132  A    between atoms: _314  and  _316
REMARK  133  A    between atoms: _316  and  _317
REMARK  134  A    between atoms: _316  and  _319
REMARK  135  A    between atoms: _319  and  _320
REMARK  136  A    between atoms: _323  and  _325
REMARK  137  A    between atoms: _325  and  _326
REMARK  138  A    between atoms: _325  and  _328
REMARK  139  A    between atoms: _328  and  _329
REMARK  140  A    between atoms: _329  and  _330
REMARK  141  A    between atoms: _335  and  _337
REMARK  142  A    between atoms: _337  and  _338
REMARK  143  A    between atoms: _337  and  _340
REMARK  144  A    between atoms: _340  and  _341
REMARK  145  A    between atoms: _341  and  _342
REMARK  146  A    between atoms: _347  and  _349
REMARK  147  A    between atoms: _349  and  _350
REMARK  148  A    between atoms: _349  and  _352
REMARK  149  A    between atoms: _352  and  _353
REMARK  150  A    between atoms: _359  and  _361
REMARK  151  A    between atoms: _361  and  _362
REMARK  152  A    between atoms: _361  and  _364
REMARK  153  A    between atoms: _366  and  _368
REMARK  154  A    between atoms: _368  and  _369
REMARK  155  A    between atoms: _368  and  _371
REMARK  156  A    between atoms: _371  and  _372
REMARK  157  A    between atoms: _372  and  _373
REMARK  158  A    between atoms: _375  and  _377
REMARK  159  A    between atoms: _377  and  _378
REMARK  160  A    between atoms: _377  and  _380
REMARK  161  A    between atoms: _380  and  _381
REMARK  162  A    between atoms: _381  and  _382
REMARK  163  A    between atoms: _381  and  _383
REMARK  164  A    between atoms: _386  and  _388
REMARK  165  A    between atoms: _388  and  _389
REMARK  166  A    between atoms: _391  and  _393
REMARK  167  A    between atoms: _393  and  _394
REMARK  168  A    between atoms: _393  and  _396
REMARK  169  A    between atoms: _396  and  _397
REMARK  170  A    between atoms: _400  and  _402
REMARK  171  A    between atoms: _402  and  _403
REMARK  172  A    between atoms: _402  and  _405
REMARK  173  A    between atoms: _405  and  _406
REMARK  174  A    between atoms: _409  and  _411
REMARK  175  A    between atoms: _411  and  _412
REMARK  176  A    between atoms: _411  and  _414
REMARK  177  A    between atoms: _414  and  _415
REMARK  178  A    between atoms: _417  and  _419
REMARK  179  A    between atoms: _419  and  _420
REMARK  180  A    between atoms: _419  and  _422
REMARK  181  A    between atoms: _422  and  _423
REMARK  182  A    between atoms: _433  and  _435
REMARK  183  A    between atoms: _435  and  _436
REMARK  184  A    between atoms: _435  and  _438
REMARK  185  A    between atoms: _438  and  _439
REMARK  186  A    between atoms: _439  and  _440
REMARK                            x       y       z     vdW  Elec       q    Type
REMARK                         _______ _______ _______ _____ _____    ______ ____
ROOT
ATOM      1  O   HOH     1     -14.114 -23.068 -20.522  0.00  0.00    +0.000 OA
ENDROOT
TORSDOF 0
